                                  MODFLOW-NWT-SWR1 
      U.S. GEOLOGICAL SURVEY MODULAR FINITE-DIFFERENCE GROUNDWATER-FLOW MODEL
                            VERSION 1.2.0 03/01/2020
                    BASED ON MODFLOW-2005 VERSION 1.12.00 02/03/2017

 LIST FILE: ..\output\modflow\sagehen.list
                         UNIT    7

 OPENING ..\input\modflow\sagehen.bas
 FILE TYPE:BAS6   UNIT    8   STATUS:OLD    
 FORMAT:FORMATTED              ACCESS:SEQUENTIAL          

 OPENING ..\input\modflow\sagehen.oc
 FILE TYPE:OC   UNIT    9   STATUS:OLD    
 FORMAT:FORMATTED              ACCESS:SEQUENTIAL          

 OPENING ..\input\modflow\sagehen.dis
 FILE TYPE:DIS   UNIT   11   STATUS:OLD    
 FORMAT:FORMATTED              ACCESS:SEQUENTIAL          

 OPENING ..\input\modflow\sagehen.UPW
 FILE TYPE:UPW   UNIT   12   STATUS:OLD    
 FORMAT:FORMATTED              ACCESS:SEQUENTIAL          

 OPENING ..\input\modflow\sagehen.uzf
 FILE TYPE:UZF   UNIT   14   STATUS:OLD    
 FORMAT:FORMATTED              ACCESS:SEQUENTIAL          

 OPENING ..\input\modflow\sagehen.sfr
 FILE TYPE:SFR   UNIT   15   STATUS:OLD    
 FORMAT:FORMATTED              ACCESS:SEQUENTIAL          

 OPENING ..\input\modflow\sagehen.gag
 FILE TYPE:GAGE   UNIT   16   STATUS:OLD    
 FORMAT:FORMATTED              ACCESS:SEQUENTIAL          

 OPENING ..\input\modflow\sagehen.nwt
 FILE TYPE:NWT   UNIT   17   STATUS:OLD    
 FORMAT:FORMATTED              ACCESS:SEQUENTIAL          

 OPENING ..\input\modflow\sagehen.lak
 FILE TYPE:LAK   UNIT   18   STATUS:OLD    
 FORMAT:FORMATTED              ACCESS:SEQUENTIAL          
#                                                                                                                                                                                                                                                                                                           
#                                                                                                                                                                                                                                                                                                           
# Bathymetry Files                                                                                                                                                                                                                                                                                          
#                                                                                                                                                                                                                                                                                                           

 OPENING ..\input\modflow\LAK_InlineRes_Stage_Vol_Area_TABFILE.txt
 FILE TYPE:DATA   UNIT   50   STATUS:UNKNOWN
 FORMAT:FORMATTED              ACCESS:SEQUENTIAL          

 OPENING ..\input\modflow\LAK_OfflineRes_Stage_Vol_Area_TABFILE.txt
 FILE TYPE:DATA   UNIT   51   STATUS:UNKNOWN
 FORMAT:FORMATTED              ACCESS:SEQUENTIAL          
#                                                                                                                                                                                                                                                                                                           
#                                                                                                                                                                                                                                                                                                           
# Output                                                                                                                                                                                                                                                                                                    
#                                                                                                                                                                                                                                                                                                           
#DATA(BINARY)   92   ..\output\modflow\UZF_RESTART.uz                                                                                                                                                                                                                                                       
#DATA(BINARY)   94   ..\output\modflow\ST.HDS                                                                                                                                                                                                                                                               
#DATA(BINARY)   95   ..\output\modflow\sagehenV3.cbc                                                                                                                                                                                                                                                        

 OPENING ..\output\modflow\head_sagehen.out
 FILE TYPE:DATA   UNIT   58   STATUS:UNKNOWN
 FORMAT:FORMATTED              ACCESS:SEQUENTIAL          

 OPENING ..\output\modflow\uz1_sagehen.out
 FILE TYPE:DATA   UNIT   65   STATUS:UNKNOWN
 FORMAT:FORMATTED              ACCESS:SEQUENTIAL          

 OPENING ..\output\modflow\uz2_sagehen.out
 FILE TYPE:DATA   UNIT   66   STATUS:UNKNOWN
 FORMAT:FORMATTED              ACCESS:SEQUENTIAL          

 OPENING ..\output\modflow\uz3_sagehen.out
 FILE TYPE:DATA   UNIT   67   STATUS:UNKNOWN
 FORMAT:FORMATTED              ACCESS:SEQUENTIAL          

 OPENING ..\output\modflow\uz_tot_sagehen.out
 FILE TYPE:DATA   UNIT   68   STATUS:UNKNOWN
 FORMAT:FORMATTED              ACCESS:SEQUENTIAL          

 OPENING ..\output\modflow\uz4_sagehen.out
 FILE TYPE:DATA   UNIT   69   STATUS:UNKNOWN
 FORMAT:FORMATTED              ACCESS:SEQUENTIAL          

 OPENING ..\output\modflow\uz5_sagehen.out
 FILE TYPE:DATA   UNIT   70   STATUS:UNKNOWN
 FORMAT:FORMATTED              ACCESS:SEQUENTIAL          

 OPENING ..\output\modflow\uz6_sagehen.out
 FILE TYPE:DATA   UNIT   71   STATUS:UNKNOWN
 FORMAT:FORMATTED              ACCESS:SEQUENTIAL          
#data           80   ..\output\modflow\sagehen_sfrseg13.out                                                                                                                                                                                                                                                 

 OPENING ..\output\modflow\Inline_Lake_gage.out
 FILE TYPE:DATA   UNIT   96   STATUS:UNKNOWN
 FORMAT:FORMATTED              ACCESS:SEQUENTIAL          

 OPENING ..\output\modflow\Offline_Lake_gage.out
 FILE TYPE:DATA   UNIT   97   STATUS:UNKNOWN
 FORMAT:FORMATTED              ACCESS:SEQUENTIAL          

 OPENING ..\output\modflow\sagehen_sfrseg20.out
 FILE TYPE:DATA   UNIT   72   STATUS:UNKNOWN
 FORMAT:FORMATTED              ACCESS:SEQUENTIAL          

 OPENING ..\output\modflow\sagehen_sfrseg19.out
 FILE TYPE:DATA   UNIT   73   STATUS:UNKNOWN
 FORMAT:FORMATTED              ACCESS:SEQUENTIAL          

 OPENING ..\output\modflow\sagehen_sfrseg22.out
 FILE TYPE:DATA   UNIT   74   STATUS:UNKNOWN
 FORMAT:FORMATTED              ACCESS:SEQUENTIAL          

 OPENING ..\output\modflow\sagehen_sfrseg16.out
 FILE TYPE:DATA   UNIT   75   STATUS:UNKNOWN
 FORMAT:FORMATTED              ACCESS:SEQUENTIAL          

 OPENING ..\output\modflow\sagehen_sfrseg16end.out
 FILE TYPE:DATA   UNIT   47   STATUS:UNKNOWN
 FORMAT:FORMATTED              ACCESS:SEQUENTIAL          

 OPENING ..\output\modflow\sagehen_sfrseg17.out
 FILE TYPE:DATA   UNIT   76   STATUS:UNKNOWN
 FORMAT:FORMATTED              ACCESS:SEQUENTIAL          

 OPENING ..\output\modflow\sagehen_sfrseg18.out
 FILE TYPE:DATA   UNIT   77   STATUS:UNKNOWN
 FORMAT:FORMATTED              ACCESS:SEQUENTIAL          

 OPENING ..\output\modflow\sagehen_sfrseg5.out
 FILE TYPE:DATA   UNIT   78   STATUS:UNKNOWN
 FORMAT:FORMATTED              ACCESS:SEQUENTIAL          

 OPENING ..\output\modflow\sagehen_sfrseg9.out
 FILE TYPE:DATA   UNIT   79   STATUS:UNKNOWN
 FORMAT:FORMATTED              ACCESS:SEQUENTIAL          

 OPENING ..\output\modflow\sagehen_sfrseg10.out
 FILE TYPE:DATA   UNIT   82   STATUS:UNKNOWN
 FORMAT:FORMATTED              ACCESS:SEQUENTIAL          

 OPENING ..\output\modflow\sagehen_sfrseg12.out
 FILE TYPE:DATA   UNIT   83   STATUS:UNKNOWN
 FORMAT:FORMATTED              ACCESS:SEQUENTIAL          

 OPENING ..\output\modflow\sagehen_sfrseg6.out
 FILE TYPE:DATA   UNIT   84   STATUS:UNKNOWN
 FORMAT:FORMATTED              ACCESS:SEQUENTIAL          

 OPENING ..\output\modflow\sagehen_sfrseg11.out
 FILE TYPE:DATA   UNIT   85   STATUS:UNKNOWN
 FORMAT:FORMATTED              ACCESS:SEQUENTIAL          

 OPENING ..\output\modflow\sagehen_sfrseg13.out
 FILE TYPE:DATA   UNIT   44   STATUS:UNKNOWN
 FORMAT:FORMATTED              ACCESS:SEQUENTIAL          

 OPENING ..\output\modflow\sagehen_sfrseg21.out
 FILE TYPE:DATA   UNIT   45   STATUS:UNKNOWN
 FORMAT:FORMATTED              ACCESS:SEQUENTIAL          

 OPENING ..\output\modflow\sagehen_sfrseg23.out
 FILE TYPE:DATA   UNIT   46   STATUS:UNKNOWN
 FORMAT:FORMATTED              ACCESS:SEQUENTIAL          

 BAS -- BASIC PACKAGE, VERSION 1.1.4, 4/01/2018 INPUT READ FROM UNIT    8
 
 MODFLOW was compiled using mixed precision
 Precision of REAL variables:           6
 Precision of DOUBLE PRECISION variables:          15

 DISCRETIZATION INPUT DATA READ FROM UNIT   11
 #Sagehen Simulation -- Example problem for MODFLOW with PSZ
 #  (File modified for version 1.1.00 release)
    3 LAYERS        71 ROWS        79 COLUMNS
    2 STRESS PERIOD(S) IN SIMULATION
 MODEL TIME UNIT IS DAYS
 MODEL LENGTH UNIT IS METERS
  Confining bed flag for each layer:
   0   0   0

                     DELR =   90.0000    

                     DELC =   90.0000    



           TOP ELEVATION OF LAYER 1
 READING ON UNIT   11 WITH FORMAT: (FREE)              

            1           2           3           4           5           6           7           8           9          10
           11          12          13          14          15          16          17          18          19          20
           21          22          23          24          25          26          27          28          29          30
           31          32          33          34          35          36          37          38          39          40
           41          42          43          44          45          46          47          48          49          50
           51          52          53          54          55          56          57          58          59          60
           61          62          63          64          65          66          67          68          69          70
           71          72          73          74          75          76          77          78          79
 ........................................................................................................................
   1    0.000       0.000       0.000       0.000       0.000       0.000       0.000       0.000       0.000       0.000    
        0.000       0.000       0.000       0.000       0.000       0.000       0.000       0.000       0.000       0.000    
        0.000       0.000       0.000       0.000       0.000       0.000       0.000       0.000       0.000       0.000    
        0.000       0.000       0.000       0.000       0.000       0.000       0.000       0.000       0.000       0.000    
        0.000       0.000       0.000       0.000       0.000       0.000       0.000       0.000       0.000       0.000    
        0.000       2173.       2163.       0.000       0.000       0.000       0.000       0.000       0.000       0.000    
        0.000       0.000       0.000       0.000       0.000       0.000       0.000       0.000       0.000       0.000    
        0.000       0.000       0.000       0.000       0.000       0.000       0.000       0.000       0.000    
   2    0.000       0.000       0.000       0.000       0.000       0.000       0.000       0.000       0.000       0.000    
        0.000       0.000       0.000       0.000       0.000       0.000       0.000       0.000       0.000       0.000    
        0.000       0.000       0.000       0.000       0.000       0.000       0.000       0.000       0.000       0.000    
        0.000       0.000       0.000       0.000       0.000       0.000       0.000       0.000       0.000       0.000    
        0.000       0.000       0.000       0.000       0.000       0.000       0.000       0.000       0.000       0.000    
        0.000       2171.       2157.       2132.       0.000       0.000       0.000       0.000       0.000       0.000    
        0.000       0.000       0.000       0.000       0.000       0.000       0.000       0.000       0.000       0.000    
        0.000       0.000       0.000       0.000       0.000       0.000       0.000       0.000       0.000    
   3    0.000       0.000       0.000       0.000       0.000       0.000       0.000       0.000       0.000       0.000    
        0.000       0.000       0.000       0.000       0.000       0.000       0.000       0.000       0.000       0.000    
        0.000       0.000       0.000       0.000       0.000       0.000       0.000       0.000       0.000       0.000    
        0.000       0.000       0.000       0.000       0.000       0.000       0.000       0.000       0.000       0.000    
        0.000       0.000       0.000       0.000       0.000       0.000       0.000       0.000       0.000       0.000    
        0.000       2164.       2149.       2122.       0.000       0.000       0.000       0.000       0.000       0.000    
        0.000       0.000       0.000       0.000       0.000       0.000       0.000       0.000       0.000       0.000    
        0.000       0.000       0.000       0.000       0.000       0.000       0.000       0.000       0.000    
   4    0.000       0.000       0.000       0.000       0.000       0.000       0.000       0.000       0.000       0.000    
        0.000       0.000       0.000       0.000       0.000       0.000       0.000       0.000       0.000       0.000    
        0.000       0.000       0.000       0.000       0.000       0.000       0.000       0.000       0.000       0.000    
        0.000       0.000       0.000       0.000       0.000       0.000       0.000       0.000       0.000       0.000    
        0.000       0.000       0.000       0.000       0.000       0.000       0.000       0.000       0.000       0.000    
        0.000       2157.       2138.       2121.       2120.       0.000       0.000       0.000       0.000       0.000    
        0.000       0.000       0.000       0.000       0.000       0.000       0.000       0.000       0.000       0.000    
        0.000       0.000       0.000       0.000       0.000       0.000       0.000       0.000       0.000    
   5    0.000       0.000       0.000       0.000       0.000       0.000       0.000       0.000       0.000       0.000    
        0.000       0.000       0.000       0.000       0.000       0.000       0.000       0.000       0.000       0.000    
        0.000       0.000       0.000       0.000       0.000       0.000       0.000       0.000       0.000       0.000    
        0.000       0.000       0.000       0.000       0.000       0.000       0.000       0.000       0.000       0.000    
        0.000       0.000       0.000       0.000       0.000       0.000       0.000       0.000       0.000       0.000    
        0.000       2151.       2131.       2120.       2118.       2118.       2116.       0.000       0.000       0.000    
        0.000       0.000       0.000       0.000       0.000       0.000       0.000       0.000       0.000       0.000    
        0.000       0.000       0.000       0.000       0.000       0.000       0.000       0.000       0.000    
   6    0.000       0.000       0.000       0.000       0.000       0.000       0.000       0.000       0.000       0.000    
        0.000       0.000       0.000       0.000       0.000       0.000       0.000       0.000       0.000       0.000    
        0.000       0.000       0.000       0.000       0.000       0.000       0.000       0.000       0.000       0.000    
        0.000       0.000       0.000       0.000       0.000       0.000       0.000       0.000       0.000       0.000    
        0.000       0.000       0.000       0.000       0.000       0.000       0.000       0.000       0.000       0.000    
        0.000       2149.       2132.       2121.       2119.       2116.       2114.       2116.       2120.       0.000    
        0.000       0.000       0.000       2122.       2124.       0.000       0.000       0.000       0.000       0.000    
        0.000       0.000       0.000       0.000       0.000       0.000       0.000       0.000       0.000    
   7    0.000       0.000       0.000       0.000       0.000       0.000       0.000       0.000       0.000       0.000    
        0.000       0.000       0.000       0.000       0.000       0.000       0.000       0.000       0.000       0.000    
        0.000       0.000       0.000       0.000       0.000       0.000       0.000       0.000       0.000       0.000    
        0.000       0.000       0.000       0.000       0.000       0.000       0.000       0.000       0.000       0.000    
        0.000       0.000       0.000       0.000       0.000       0.000       0.000       0.000       0.000       0.000    
        0.000       2151.       2136.       2132.       2120.       2113.       2111.       2114.       2119.       2122.    
        2126.       2124.       2121.       2119.       2122.       2123.       0.000       0.000       0.000       0.000    
        0.000       0.000       0.000       0.000       0.000       0.000       0.000       0.000       0.000    
   8    0.000       0.000       0.000       0.000       0.000       0.000       0.000       0.000       0.000       0.000    
        0.000       0.000       0.000       0.000       0.000       0.000       0.000       0.000       0.000       0.000    
        0.000       0.000       0.000       0.000       0.000       0.000       0.000       0.000       0.000       0.000    
        0.000       0.000       0.000       0.000       0.000       0.000       0.000       0.000       0.000       0.000    
        0.000       0.000       0.000       0.000       0.000       0.000       0.000       0.000       0.000       0.000    
        0.000       2158.       2146.       2136.       2120.       2109.       2109.       2111.       2117.       2123.    
        2126.       2125.       2122.       2117.       2116.       2117.       2117.       2118.       0.000       0.000    
        0.000       0.000       0.000       0.000       0.000       0.000       0.000       0.000       0.000    
   9    0.000       0.000       0.000       0.000       0.000       0.000       0.000       0.000       0.000       0.000    
        0.000       0.000       0.000       0.000       0.000       0.000       0.000       0.000       0.000       0.000    
        0.000       0.000       0.000       0.000       0.000       0.000       0.000       0.000       0.000       0.000    
        0.000       0.000       0.000       0.000       0.000       0.000       0.000       0.000       0.000       0.000    
        0.000       0.000       0.000       0.000       0.000       0.000       0.000       0.000       0.000       0.000    
        2160.       2152.       2141.       2132.       2121.       2110.       2106.       2108.       2110.       2119.    
        2125.       2125.       2122.       2116.       2110.       2108.       2111.       2116.       2120.       0.000    
        0.000       0.000       0.000       0.000       0.000       0.000       0.000       0.000       0.000    
  10    0.000       0.000       0.000       0.000       0.000       0.000       0.000       0.000       0.000       0.000    
        0.000       0.000       0.000       0.000       0.000       0.000       0.000       0.000       0.000       0.000    
        0.000       0.000       0.000       0.000       0.000       0.000       0.000       0.000       0.000       0.000    
        0.000       0.000       0.000       0.000       0.000       0.000       0.000       0.000       0.000       0.000    
        0.000       0.000       0.000       0.000       0.000       0.000       0.000       0.000       0.000       2151.    
        2154.       2147.       2140.       2130.       2117.       2111.       2106.       2107.       2108.       2115.    
        2120.       2121.       2119.       2116.       2111.       2099.       2106.       2115.       2122.       2127.    
        0.000       0.000       0.000       0.000       0.000       0.000       0.000       0.000       0.000    
  11    0.000       0.000       0.000       0.000       0.000       0.000       0.000       0.000       0.000       0.000    
        0.000       0.000       0.000       0.000       0.000       0.000       0.000       0.000       0.000       0.000    
        0.000       0.000       0.000       0.000       0.000       0.000       0.000       0.000       0.000       0.000    
        0.000       0.000       0.000       0.000       0.000       0.000       0.000       0.000       0.000       0.000    
        0.000       0.000       0.000       0.000       0.000       0.000       0.000       0.000       2150.       2148.    
        2146.       2143.       2139.       2130.       2118.       2111.       2106.       2105.       2105.       2108.    
        2112.       2112.       2113.       2112.       2107.       2097.       2104.       2112.       2119.       2125.    
        2130.       0.000       0.000       0.000       0.000       0.000       0.000       0.000       0.000    
  12    0.000       0.000       0.000       0.000       0.000       0.000       0.000       0.000       0.000       0.000    
        0.000       0.000       0.000       0.000       0.000       0.000       0.000       0.000       0.000       0.000    
        0.000       0.000       0.000       0.000       0.000       0.000       0.000       0.000       0.000       0.000    
        0.000       0.000       0.000       0.000       0.000       0.000       0.000       0.000       0.000       0.000    
        0.000       2187.       2181.       0.000       0.000       0.000       0.000       2156.       2152.       2146.    
        2143.       2137.       2136.       2135.       2121.       2112.       2108.       2103.       2101.       2102.    
        2104.       2106.       2107.       2106.       2101.       2094.       2097.       2105.       2112.       2123.    
        2128.       0.000       0.000       0.000       0.000       0.000       0.000       0.000       0.000    
  13    0.000       0.000       0.000       0.000       0.000       0.000       0.000       0.000       0.000       0.000    
        0.000       0.000       0.000       0.000       0.000       0.000       0.000       0.000       0.000       0.000    
        0.000       0.000       0.000       0.000       0.000       0.000       0.000       0.000       0.000       0.000    
        0.000       0.000       0.000       0.000       0.000       0.000       0.000       0.000       2188.       2185.    
        2184.       2182.       2171.       2167.       2165.       2164.       2161.       2157.       2150.       2144.    
        2139.       2134.       2131.       2128.       2122.       2114.       2108.       2102.       2098.       2096.    
        2097.       2098.       2103.       2101.       2096.       2088.       2089.       2096.       2108.       2121.    
        2123.       2124.       0.000       0.000       0.000       0.000       0.000       0.000       0.000    
  14    0.000       0.000       0.000       0.000       0.000       0.000       0.000       0.000       0.000       0.000    
        0.000       0.000       0.000       0.000       0.000       0.000       0.000       0.000       0.000       0.000    
        0.000       0.000       0.000       0.000       0.000       0.000       0.000       0.000       0.000       0.000    
        0.000       0.000       0.000       0.000       0.000       0.000       0.000       0.000       2188.       2178.    
        2172.       2168.       2158.       2157.       2157.       2161.       2160.       2155.       2148.       2142.    
        2137.       2132.       2128.       2124.       2120.       2116.       2110.       2104.       2098.       2092.    
        2092.       2094.       2097.       2097.       2089.       2081.       2080.       2087.       2098.       2113.    
        2116.       2118.       2118.       0.000       0.000       0.000       0.000       0.000       0.000    
  15    0.000       0.000       0.000       0.000       0.000       0.000       0.000       0.000       0.000       0.000    
        0.000       0.000       0.000       0.000       0.000       0.000       0.000       0.000       0.000       0.000    
        0.000       0.000       0.000       0.000       0.000       0.000       0.000       0.000       0.000       0.000    
        0.000       0.000       0.000       0.000       0.000       0.000       0.000       2197.       2186.       2178.    
        2170.       2153.       2145.       2142.       2143.       2150.       2152.       2151.       2146.       2140.    
        2134.       2129.       2124.       2120.       2116.       2113.       2111.       2106.       2100.       2091.    
        2087.       2090.       2092.       2090.       2087.       2078.       2073.       2078.       2085.       2097.    
        2105.       2110.       2114.       0.000       0.000       0.000       0.000       0.000       0.000    
  16    0.000       0.000       0.000       0.000       0.000       0.000       0.000       0.000       0.000       0.000    
        0.000       0.000       0.000       0.000       0.000       0.000       0.000       0.000       0.000       0.000    
        0.000       0.000       0.000       0.000       0.000       0.000       0.000       0.000       0.000       0.000    
        0.000       0.000       0.000       0.000       0.000       0.000       2207.       2195.       2186.       2175.    
        2164.       2155.       2150.       2146.       2131.       2136.       2137.       2140.       2139.       2136.    
        2132.       2125.       2120.       2115.       2111.       2109.       2107.       2105.       2101.       2097.    
        2083.       2086.       2089.       2088.       2086.       2078.       2070.       2070.       2072.       2084.    
        2092.       2102.       2109.       2110.       0.000       0.000       0.000       0.000       0.000    
  17    0.000       0.000       0.000       0.000       0.000       0.000       0.000       0.000       0.000       0.000    
        0.000       0.000       0.000       0.000       0.000       0.000       0.000       0.000       0.000       0.000    
        0.000       0.000       0.000       0.000       0.000       0.000       0.000       0.000       0.000       0.000    
        0.000       0.000       0.000       0.000       0.000       2208.       2202.       2186.       2179.       2170.    
        2158.       2155.       2152.       2148.       2135.       2124.       2122.       2122.       2129.       2129.    
        2125.       2119.       2113.       2110.       2108.       2106.       2105.       2103.       2100.       2097.    
        2083.       2082.       2087.       2085.       2078.       2067.       2065.       2062.       2063.       2069.    
        2077.       2093.       2101.       2103.       0.000       0.000       0.000       0.000       0.000    
  18    0.000       0.000       0.000       0.000       0.000       0.000       0.000       0.000       0.000       0.000    
        0.000       0.000       0.000       0.000       0.000       0.000       0.000       0.000       0.000       0.000    
        0.000       0.000       0.000       0.000       0.000       0.000       0.000       0.000       0.000       0.000    
        0.000       0.000       0.000       0.000       2214.       2207.       2194.       2182.       2174.       2167.    
        2158.       2155.       2150.       2146.       2133.       2126.       2117.       2105.       2115.       2120.    
        2117.       2111.       2108.       2104.       2102.       2102.       2102.       2101.       2099.       2093.    
        2086.       2073.       2078.       2075.       2067.       2060.       2060.       2057.       2057.       2056.    
        2066.       2081.       2091.       2096.       0.000       0.000       0.000       0.000       0.000    
  19    0.000       0.000       0.000       0.000       0.000       0.000       0.000       0.000       0.000       0.000    
        0.000       0.000       0.000       0.000       0.000       0.000       0.000       0.000       0.000       0.000    
        0.000       0.000       0.000       0.000       0.000       0.000       0.000       0.000       0.000       0.000    
        0.000       0.000       0.000       2220.       2208.       2210.       2195.       2184.       2181.       2172.    
        2163.       2157.       2151.       2147.       2139.       2133.       2117.       2092.       2099.       2108.    
        2109.       2103.       2102.       2099.       2097.       2098.       2100.       2100.       2098.       2089.    
        2081.       2071.       2063.       2063.       2060.       2055.       2057.       2056.       2056.       2056.    
        2058.       2070.       2084.       2096.       0.000       0.000       0.000       0.000       0.000    
  20    0.000       0.000       0.000       0.000       0.000       0.000       0.000       0.000       0.000       0.000    
        0.000       0.000       0.000       0.000       0.000       0.000       0.000       0.000       0.000       0.000    
        0.000       0.000       0.000       0.000       0.000       0.000       0.000       0.000       0.000       0.000    
        0.000       0.000       0.000       2219.       2227.       2228.       2210.       2199.       2187.       2179.    
        2172.       2159.       2149.       2146.       2138.       2132.       2113.       2087.       2089.       2095.    
        2099.       2095.       2095.       2093.       2093.       2094.       2098.       2097.       2092.       2084.    
        2077.       2069.       2060.       2054.       2055.       2053.       2056.       2059.       2060.       2062.    
        2060.       2067.       2083.       2110.       0.000       0.000       0.000       0.000       0.000    
  21    0.000       0.000       0.000       0.000       0.000       0.000       0.000       0.000       0.000       0.000    
        0.000       0.000       0.000       0.000       0.000       0.000       0.000       0.000       0.000       0.000    
        0.000       0.000       0.000       0.000       0.000       0.000       0.000       0.000       0.000       0.000    
        0.000       0.000       2230.       2239.       2243.       2230.       2210.       2194.       2179.       2168.    
        2158.       2148.       2139.       2131.       2124.       2116.       2100.       2077.       2074.       2081.    
        2087.       2085.       2085.       2085.       2088.       2091.       2095.       2092.       2085.       2080.    
        2075.       2067.       2060.       2051.       2051.       2052.       2061.       2065.       2073.       2073.    
        2070.       2070.       2082.       2097.       2107.       0.000       0.000       0.000       0.000    
  22    0.000       0.000       0.000       0.000       0.000       0.000       0.000       0.000       0.000       0.000    
        0.000       0.000       0.000       0.000       0.000       0.000       0.000       0.000       0.000       0.000    
        0.000       0.000       0.000       0.000       0.000       0.000       0.000       0.000       0.000       0.000    
        0.000       0.000       2248.       2245.       2232.       2215.       2199.       2183.       2171.       2162.    
        2151.       2138.       2126.       2114.       2100.       2092.       2075.       2065.       2060.       2068.    
        2077.       2077.       2076.       2080.       2085.       2088.       2091.       2087.       2081.       2075.    
        2071.       2066.       2061.       2051.       2048.       2051.       2058.       2065.       2070.       2075.    
        2080.       2077.       2077.       2087.       0.000       0.000       0.000       0.000       0.000    
  23    0.000       0.000       0.000       0.000       0.000       0.000       0.000       0.000       0.000       0.000    
        0.000       0.000       0.000       0.000       0.000       0.000       0.000       0.000       0.000       0.000    
        0.000       0.000       0.000       0.000       0.000       0.000       0.000       0.000       0.000       0.000    
        0.000       2257.       2243.       2230.       2216.       2201.       2185.       2173.       2160.       2150.    
        2144.       2136.       2123.       2111.       2092.       2073.       2062.       2055.       2049.       2060.    
        2067.       2067.       2069.       2074.       2082.       2085.       2089.       2088.       2079.       2071.    
        2069.       2065.       2061.       2050.       2045.       2047.       2053.       2062.       2070.       2077.    
        2086.       0.000       0.000       0.000       0.000       0.000       0.000       0.000       0.000    
  24    0.000       0.000       0.000       0.000       0.000       0.000       0.000       0.000       0.000       0.000    
        0.000       0.000       0.000       0.000       0.000       0.000       0.000       0.000       0.000       0.000    
        0.000       0.000       0.000       0.000       0.000       0.000       0.000       0.000       2253.       2258.    
        2251.       2240.       2226.       2212.       2199.       2182.       2169.       2156.       2145.       2136.    
        2129.       2119.       2111.       2105.       2093.       2075.       2059.       2047.       2040.       2050.    
        2054.       2054.       2059.       2073.       2077.       2081.       2085.       2086.       2077.       2071.    
        2066.       2065.       2062.       2048.       2045.       2045.       2047.       2056.       2067.       2077.    
        2087.       0.000       0.000       0.000       0.000       0.000       0.000       0.000       0.000    
  25    0.000       0.000       0.000       0.000       0.000       0.000       0.000       0.000       0.000       0.000    
        0.000       0.000       0.000       0.000       0.000       0.000       0.000       0.000       0.000       0.000    
        0.000       0.000       0.000       0.000       0.000       0.000       0.000       2265.       2240.       2229.    
        2229.       2218.       2207.       2196.       2181.       2168.       2155.       2139.       2126.       2119.    
        2113.       2106.       2097.       2092.       2087.       2077.       2058.       2045.       2035.       2038.    
        2042.       2043.       2049.       2064.       2071.       2074.       2078.       2081.       2075.       2065.    
        2062.       2062.       2062.       2057.       2049.       2049.       2045.       2048.       2059.       2068.    
        2079.       0.000       0.000       0.000       0.000       0.000       0.000       0.000       0.000    
  26    0.000       0.000       0.000       0.000       0.000       0.000       0.000       0.000       0.000       0.000    
        0.000       0.000       0.000       0.000       0.000       0.000       0.000       0.000       0.000       0.000    
        0.000       0.000       0.000       0.000       0.000       2274.       2259.       2237.       2212.       2203.    
        2202.       2196.       2187.       2177.       2164.       2151.       2135.       2119.       2108.       2103.    
        2098.       2088.       2083.       2079.       2077.       2072.       2061.       2042.       2033.       2026.    
        2027.       2032.       2040.       2053.       2064.       2068.       2071.       2074.       2070.       2061.    
        2057.       2059.       2058.       2058.       2057.       2050.       2049.       2042.       2049.       2058.    
        2065.       0.000       0.000       0.000       0.000       0.000       0.000       0.000       0.000    
  27    0.000       0.000       0.000       0.000       0.000       0.000       0.000       0.000       0.000       0.000    
        0.000       0.000       0.000       0.000       0.000       0.000       0.000       0.000       0.000       0.000    
        0.000       0.000       0.000       0.000       2273.       2252.       2235.       2217.       2193.       2175.    
        2179.       2176.       2170.       2159.       2147.       2130.       2112.       2101.       2095.       2088.    
        2080.       2074.       2068.       2068.       2067.       2066.       2058.       2046.       2037.       2026.    
        2019.       2023.       2031.       2043.       2058.       2062.       2064.       2065.       2061.       2056.    
        2052.       2052.       2053.       2057.       2057.       2054.       2052.       2041.       2043.       2048.    
        2052.       0.000       0.000       0.000       0.000       0.000       0.000       0.000       0.000    
  28    0.000       0.000       0.000       0.000       0.000       0.000       0.000       0.000       0.000       0.000    
        0.000       0.000       0.000       0.000       0.000       0.000       0.000       0.000       0.000       0.000    
        0.000       0.000       0.000       2273.       2250.       2229.       2213.       2198.       2179.       2166.    
        2163.       2162.       2154.       2142.       2129.       2113.       2097.       2088.       2080.       2072.    
        2064.       2060.       2056.       2057.       2058.       2058.       2054.       2048.       2039.       2028.    
        2014.       2017.       2023.       2036.       2047.       2052.       2056.       2056.       2053.       2051.    
        2046.       2046.       2046.       2053.       2057.       2057.       2055.       2039.       2036.       2042.    
        2045.       2045.       0.000       0.000       0.000       0.000       0.000       0.000       0.000    
  29    0.000       0.000       0.000       0.000       0.000       0.000       0.000       0.000       0.000       0.000    
        0.000       0.000       0.000       0.000       0.000       0.000       0.000       0.000       0.000       0.000    
        0.000       2277.       2269.       2250.       2225.       2207.       2194.       2181.       2170.       2159.    
        2151.       2147.       2138.       2127.       2115.       2099.       2086.       2076.       2067.       2060.    
        2053.       2051.       2051.       2051.       2051.       2049.       2050.       2045.       2039.       2028.    
        2016.       2009.       2017.       2029.       2038.       2041.       2046.       2045.       2046.       2046.    
        2039.       2039.       2040.       2049.       2057.       2056.       2052.       2042.       2029.       2037.    
        2040.       2040.       0.000       0.000       0.000       0.000       0.000       0.000       0.000    
  30    0.000       0.000       0.000       0.000       0.000       0.000       0.000       0.000       0.000       0.000    
        0.000       0.000       0.000       0.000       0.000       0.000       0.000       0.000       0.000       2312.    
        2283.       2263.       2245.       2223.       2202.       2188.       2177.       2168.       2158.       2150.    
        2146.       2135.       2125.       2117.       2105.       2091.       2076.       2064.       2057.       2051.    
        2051.       2051.       2051.       2051.       2051.       2047.       2043.       2039.       2034.       2027.    
        2014.       2004.       2012.       2026.       2029.       2030.       2034.       2034.       2039.       2040.    
        2034.       2032.       2035.       2044.       2053.       2050.       2045.       2041.       2023.       2027.    
        2036.       2036.       0.000       0.000       0.000       0.000       0.000       0.000       0.000    
  31    0.000       0.000       0.000       0.000       0.000       0.000       0.000       0.000       0.000       0.000    
        0.000       0.000       0.000       0.000       0.000       0.000       0.000       0.000       2318.       2297.    
        2271.       2243.       2219.       2202.       2185.       2174.       2166.       2156.       2147.       2140.    
        2135.       2128.       2114.       2108.       2100.       2085.       2068.       2057.       2051.       2051.    
        2051.       2051.       2051.       2051.       2051.       2045.       2034.       2034.       2029.       2023.    
        2010.       1999.       2007.       2019.       2020.       2020.       2022.       2026.       2033.       2033.    
        2027.       2023.       2030.       2039.       2046.       2044.       2038.       2036.       2025.       2011.    
        2022.       2029.       0.000       0.000       0.000       0.000       0.000       0.000       0.000    
  32    0.000       0.000       0.000       0.000       0.000       0.000       0.000       0.000       0.000       0.000    
        0.000       0.000       0.000       0.000       0.000       0.000       2336.       2318.       2297.       2282.    
        2257.       2229.       2203.       2180.       2170.       2162.       2154.       2146.       2138.       2131.    
        2125.       2120.       2109.       2102.       2094.       2081.       2065.       2051.       2051.       2051.    
        2051.       2051.       2051.       2051.       2051.       2035.       2027.       2027.       2026.       2020.    
        2007.       1997.       1997.       2003.       2006.       2009.       2011.       2018.       2023.       2023.    
        2017.       2013.       2023.       2031.       2039.       2038.       2032.       2030.       2020.       2005.    
        2015.       2025.       0.000       0.000       0.000       0.000       0.000       0.000       0.000    
  33    0.000       0.000       0.000       0.000       0.000       0.000       0.000       0.000       0.000       0.000    
        0.000       0.000       0.000       0.000       0.000       2363.       2326.       2301.       2284.       2270.    
        2248.       2222.       2192.       2168.       2159.       2153.       2144.       2136.       2130.       2123.    
        2117.       2113.       2108.       2100.       2086.       2073.       2060.       2051.       2051.       2051.    
        2051.       2051.       2051.       2051.       2045.       2030.       2017.       2019.       2020.       2015.    
        2007.       1997.       1991.       1991.       1994.       1995.       1999.       2005.       2008.       2007.    
        2004.       2005.       2013.       2022.       2028.       2027.       2026.       2025.       2010.       2003.    
        2015.       2022.       2023.       0.000       0.000       0.000       0.000       0.000       0.000    
  34    0.000       0.000       0.000       0.000       0.000       0.000       0.000       0.000       0.000       0.000    
        0.000       0.000       0.000       0.000       2381.       2352.       2317.       2291.       2277.       2265.    
        2243.       2217.       2192.       2169.       2151.       2143.       2133.       2128.       2122.       2116.    
        2111.       2107.       2099.       2092.       2083.       2064.       2054.       2051.       2051.       2051.    
        2051.       2051.       2051.       2051.       2051.       2011.       2007.       2001.       2008.       2007.    
        2003.       1998.       1991.       1987.       1985.       1984.       1986.       1989.       1992.       1994.    
        1989.       1997.       2003.       2011.       2014.       2011.       2006.       2006.       1986.       1995.    
        2005.       2014.       2016.       0.000       0.000       0.000       0.000       0.000       0.000    
  35    0.000       0.000       0.000       0.000       0.000       0.000       0.000       0.000       0.000       0.000    
        0.000       0.000       0.000       2379.       2363.       2346.       2318.       2281.       2270.       2258.    
        2234.       2214.       2193.       2172.       2153.       2141.       2132.       2124.       2115.       2110.    
        2104.       2099.       2091.       2081.       2067.       2062.       2054.       2054.       2066.       2074.    
        2074.       2065.       2051.       2051.       2051.       2014.       2014.       2006.       1994.       1990.    
        1989.       1988.       1989.       1990.       1982.       1979.       1980.       1979.       1980.       1980.    
        1981.       1989.       1997.       1999.       2000.       2001.       1992.       1986.       1973.       1980.    
        1991.       2003.       2014.       2015.       0.000       0.000       0.000       0.000       0.000    
  36    0.000       0.000       0.000       0.000       0.000       0.000       0.000       0.000       0.000       0.000    
        0.000       0.000       0.000       2362.       2350.       2338.       2312.       2280.       2259.       2245.    
        2229.       2209.       2192.       2174.       2160.       2147.       2134.       2124.       2115.       2107.    
        2098.       2091.       2084.       2077.       2074.       2065.       2057.       2062.       2076.       2079.    
        2079.       2068.       2051.       2051.       2040.       2021.       2019.       2010.       1998.       1991.    
        1988.       1984.       1980.       1982.       1976.       1975.       1975.       1974.       1973.       1973.    
        1976.       1982.       1988.       1988.       1985.       1987.       1979.       1975.       1967.       1968.    
        1975.       1990.       2004.       2007.       2006.       0.000       0.000       0.000       0.000    
  37    0.000       0.000       0.000       0.000       0.000       0.000       0.000       0.000       0.000       0.000    
        0.000       0.000       2367.       2354.       2343.       2329.       2309.       2276.       2258.       2240.    
        2219.       2202.       2184.       2170.       2160.       2147.       2134.       2125.       2120.       2112.    
        2101.       2094.       2089.       2085.       2082.       2072.       2061.       2065.       2075.       2080.    
        2077.       2064.       2051.       2040.       2027.       2028.       2024.       2009.       2000.       1995.    
        1991.       1986.       1983.       1980.       1978.       1975.       1973.       1972.       1972.       1970.    
        1971.       1976.       1978.       1977.       1974.       1969.       1964.       1960.       1959.       1960.    
        1964.       1972.       1979.       1982.       1983.       0.000       0.000       0.000       0.000    
  38    0.000       0.000       0.000       0.000       0.000       0.000       0.000       0.000       0.000       0.000    
        2394.       2373.       2361.       2347.       2336.       2324.       2306.       2278.       2265.       2242.    
        2226.       2212.       2193.       2172.       2166.       2155.       2141.       2130.       2125.       2117.    
        2107.       2103.       2099.       2093.       2090.       2080.       2067.       2067.       2073.       2081.    
        2074.       2058.       2049.       2041.       2035.       2037.       2032.       2017.       2006.       1999.    
        1994.       1989.       1986.       1984.       1982.       1978.       1975.       1974.       1972.       1971.    
        1967.       1963.       1963.       1963.       1963.       1960.       1958.       1955.       1953.       1951.    
        1950.       1953.       1957.       1959.       1962.       1958.       0.000       0.000       0.000    
  39    0.000       0.000       0.000       0.000       0.000       0.000       0.000       2460.       2433.       2413.    
        2389.       2372.       2354.       2342.       2333.       2321.       2304.       2287.       2271.       2257.    
        2233.       2216.       2196.       2181.       2177.       2166.       2147.       2137.       2131.       2120.    
        2115.       2111.       2103.       2097.       2096.       2086.       2072.       2071.       2075.       2084.    
        2080.       2061.       2054.       2045.       2046.       2050.       2047.       2035.       2015.       2004.    
        1999.       1993.       1990.       1989.       1987.       1985.       1982.       1979.       1976.       1974.    
        1973.       1977.       1985.       1991.       1983.       1969.       1962.       1953.       1948.       1946.    
        1942.       1942.       1942.       1944.       1943.       1940.       0.000       0.000       0.000    
  40    0.000       0.000       0.000       0.000       0.000       0.000       2484.       2462.       2433.       2410.    
        2388.       2368.       2355.       2344.       2333.       2323.       2311.       2296.       2281.       2261.    
        2238.       2218.       2202.       2198.       2197.       2177.       2162.       2150.       2138.       2127.    
        2124.       2116.       2110.       2105.       2101.       2091.       2074.       2078.       2087.       2090.    
        2089.       2080.       2063.       2052.       2054.       2064.       2059.       2044.       2023.       2014.    
        2005.       2000.       2000.       1997.       1998.       1999.       1996.       1999.       1994.       1980.    
        1978.       1987.       2001.       2006.       2008.       2005.       1989.       1961.       1954.       1949.    
        1945.       1941.       1938.       1936.       1934.       1933.       0.000       0.000       0.000    
  41    0.000       0.000       0.000       0.000       0.000       2518.       2502.       2467.       2443.       2418.    
        2393.       2373.       2357.       2346.       2340.       2332.       2322.       2309.       2283.       2264.    
        2248.       2228.       2215.       2211.       2207.       2194.       2173.       2159.       2142.       2138.    
        2129.       2121.       2114.       2109.       2104.       2093.       2080.       2090.       2099.       2100.    
        2096.       2090.       2075.       2062.       2060.       2076.       2071.       2054.       2039.       2022.    
        2016.       2012.       2014.       2013.       2012.       2019.       2012.       2017.       2002.       1989.    
        1985.       1996.       2007.       2014.       2017.       2017.       2002.       1975.       1962.       1954.    
        1962.       1962.       1962.       1962.       1962.       0.000       0.000       0.000       0.000    
  42    0.000       0.000       0.000       0.000       0.000       2535.       2523.       2491.       2463.       2432.    
        2399.       2378.       2366.       2356.       2357.       2352.       2345.       2325.       2294.       2272.    
        2254.       2240.       2222.       2208.       2200.       2188.       2170.       2159.       2152.       2143.    
        2133.       2123.       2119.       2114.       2107.       2094.       2090.       2106.       2111.       2108.    
        2105.       2096.       2083.       2075.       2070.       2072.       2082.       2076.       2063.       2035.    
        2031.       2029.       2032.       2034.       2034.       2034.       2030.       2020.       2005.       1995.    
        1993.       2004.       2015.       2021.       2023.       2017.       2003.       1982.       1967.       1962.    
        1961.       1961.       1961.       1961.       1962.       0.000       0.000       0.000       0.000    
  43    0.000       0.000       0.000       0.000       0.000       2551.       2539.       2500.       2469.       2438.    
        2408.       2387.       2382.       2379.       2375.       2369.       2363.       2343.       2316.       2282.    
        2264.       2249.       2231.       2222.       2207.       2196.       2187.       2178.       2163.       2147.    
        2137.       2132.       2125.       2118.       2110.       2096.       2099.       2115.       2120.       2116.    
        2115.       2114.       2094.       2083.       2078.       2080.       2091.       2091.       2082.       2060.    
        2057.       2053.       2055.       2056.       2053.       2046.       2036.       2022.       2013.       2000.    
        1999.       2009.       2020.       2028.       2028.       2020.       1995.       1987.       1971.       1962.    
        1961.       1961.       1961.       1961.       1962.       0.000       0.000       0.000       0.000    
  44    0.000       0.000       0.000       0.000       0.000       2554.       2536.       2503.       2467.       2435.    
        2411.       2398.       2390.       2383.       2374.       2368.       2363.       2356.       2333.       2306.    
        2278.       2250.       2254.       2242.       2227.       2213.       2200.       2189.       2172.       2152.    
        2144.       2139.       2130.       2122.       2111.       2099.       2106.       2125.       2133.       2127.    
        2121.       2122.       2121.       2105.       2090.       2091.       2102.       2102.       2095.       2090.    
        2085.       2080.       2079.       2077.       2068.       2060.       2045.       2023.       2017.       2007.    
        2006.       2011.       2021.       2031.       2031.       2021.       1990.       1961.       1961.       1961.    
        1961.       1961.       1961.       1961.       1961.       0.000       0.000       0.000       0.000    
  45    0.000       0.000       0.000       2555.       2547.       2546.       2529.       2499.       2455.       2429.    
        2407.       2393.       2382.       2370.       2354.       2346.       2345.       2340.       2330.       2308.    
        2274.       2280.       2267.       2251.       2238.       2224.       2207.       2192.       2176.       2158.    
        2150.       2142.       2135.       2126.       2113.       2102.       2115.       2136.       2148.       2142.    
        2131.       2122.       2119.       2114.       2103.       2099.       2112.       2112.       2113.       2114.    
        2111.       2107.       2107.       2101.       2084.       2071.       2050.       2031.       2023.       2016.    
        2010.       2013.       2021.       2029.       2029.       2020.       2010.       1980.       1961.       1961.    
        1961.       1961.       1961.       1961.       1979.       0.000       0.000       0.000       0.000    
  46    0.000       0.000       0.000       2556.       2540.       2533.       2520.       2484.       2447.       2421.    
        2397.       2380.       2366.       2352.       2341.       2336.       2329.       2321.       2306.       2306.    
        2309.       2298.       2278.       2267.       2252.       2231.       2209.       2194.       2181.       2167.    
        2154.       2145.       2137.       2125.       2114.       2106.       2119.       2139.       2153.       2148.    
        2139.       2128.       2120.       2113.       2105.       2103.       2114.       2120.       2127.       2132.    
        2134.       2138.       2134.       2120.       2105.       2082.       2058.       2038.       2031.       2026.    
        2017.       2022.       2025.       2032.       2029.       2017.       2008.       1980.       1961.       1961.    
        1961.       1961.       1961.       1968.       1992.       0.000       0.000       0.000       0.000    
  47    0.000       0.000       0.000       2557.       2539.       2526.       2506.       2476.       2440.       2411.    
        2389.       2366.       2356.       2349.       2340.       2335.       2334.       2332.       2329.       2328.    
        2320.       2308.       2293.       2277.       2258.       2233.       2213.       2201.       2189.       2176.    
        2161.       2148.       2139.       2130.       2121.       2109.       2115.       2131.       2143.       2143.    
        2139.       2136.       2126.       2115.       2106.       2105.       2113.       2122.       2133.       2143.    
        2152.       2160.       2155.       2139.       2119.       2095.       2065.       2047.       2035.       2027.    
        2024.       2029.       2032.       2034.       2029.       2016.       2007.       1980.       1961.       1961.    
        1961.       1961.       1961.       1970.       1994.       0.000       0.000       0.000       0.000    
  48    0.000       0.000       0.000       2562.       2545.       2524.       2495.       2465.       2430.       2406.    
        2377.       2362.       2356.       2350.       2347.       2344.       2350.       2354.       2353.       2351.    
        2333.       2315.       2297.       2278.       2257.       2235.       2217.       2208.       2198.       2185.    
        2169.       2156.       2145.       2139.       2139.       2134.       2118.       2121.       2131.       2137.    
        2140.       2144.       2141.       2130.       2117.       2107.       2111.       2127.       2140.       2153.    
        2169.       2177.       2168.       2156.       2139.       2111.       2080.       2058.       2040.       2031.    
        2034.       2037.       2040.       2037.       2026.       2018.       2009.       1990.       1975.       1961.    
        1961.       1961.       1961.       1980.       1999.       2011.       0.000       0.000       0.000    
  49    0.000       0.000       0.000       2564.       2548.       2527.       2485.       2455.       2426.       2403.    
        2381.       2365.       2364.       2361.       2356.       2361.       2365.       2368.       2370.       2353.    
        2331.       2313.       2296.       2275.       2260.       2241.       2230.       2215.       2203.       2189.    
        2175.       2165.       2153.       2150.       2149.       2148.       2134.       2121.       2125.       2133.    
        2143.       2150.       2153.       2148.       2135.       2117.       2109.       2123.       2139.       2161.    
        2181.       2197.       2188.       2171.       2153.       2126.       2096.       2070.       2052.       2040.    
        2042.       2046.       2048.       2045.       2030.       2021.       2014.       2007.       1999.       1981.    
        1961.       1961.       1961.       1984.       2005.       2013.       0.000       0.000       0.000    
  50    0.000       0.000       0.000       2572.       2555.       2519.       2482.       2451.       2416.       2401.    
        2392.       2375.       2379.       2377.       2377.       2382.       2381.       2373.       2358.       2340.    
        2323.       2307.       2292.       2274.       2261.       2248.       2237.       2226.       2211.       2195.    
        2180.       2171.       2162.       2157.       2154.       2150.       2138.       2127.       2125.       2134.    
        2145.       2154.       2161.       2162.       2156.       2132.       2117.       2118.       2133.       2158.    
        2186.       2206.       2206.       2190.       2167.       2144.       2112.       2088.       2068.       2053.    
        2048.       2054.       2062.       2059.       2042.       2028.       2019.       2012.       2005.       2001.    
        1985.       1975.       1985.       1990.       2012.       2019.       0.000       0.000       0.000    
  51    0.000       0.000       0.000       2572.       2548.       2507.       2477.       2445.       2408.       2397.    
        2387.       2392.       2403.       2401.       2406.       2406.       2390.       2363.       2344.       2330.    
        2318.       2307.       2294.       2281.       2272.       2256.       2240.       2228.       2217.       2201.    
        2187.       2176.       2167.       2161.       2155.       2149.       2137.       2129.       2128.       2134.    
        2145.       2156.       2164.       2169.       2168.       2150.       2125.       2117.       2122.       2149.    
        2179.       2205.       2222.       2207.       2181.       2156.       2128.       2102.       2081.       2071.    
        2057.       2061.       2070.       2073.       2060.       2039.       2024.       2018.       2012.       2014.    
        2009.       1998.       2005.       2014.       2020.       2026.       0.000       0.000       0.000    
  52    0.000       0.000       2578.       2565.       2536.       2495.       2465.       2438.       2411.       2397.    
        2403.       2411.       2420.       2426.       2428.       2422.       2408.       2382.       2364.       2343.    
        2325.       2313.       2303.       2290.       2279.       2264.       2245.       2230.       2217.       2206.    
        2194.       2180.       2170.       2162.       2154.       2146.       2137.       2129.       2130.       2134.    
        2144.       2155.       2166.       2172.       2177.       2169.       2146.       2125.       2121.       2136.    
        2169.       2201.       2221.       2218.       2198.       2171.       2138.       2114.       2094.       2081.    
        2071.       2072.       2077.       2079.       2074.       2053.       2034.       2026.       2027.       2027.    
        2023.       2008.       2010.       2024.       2031.       2037.       0.000       0.000       0.000    
  53    0.000       0.000       2584.       2564.       2526.       2491.       2462.       2429.       2415.       2409.    
        2419.       2426.       2438.       2444.       2445.       2442.       2432.       2412.       2384.       2363.    
        2344.       2325.       2313.       2302.       2293.       2277.       2255.       2236.       2218.       2205.    
        2194.       2183.       2172.       2163.       2154.       2145.       2139.       2132.       2132.       2138.    
        2148.       2162.       2172.       2183.       2189.       2188.       2167.       2141.       2134.       2136.    
        2164.       2193.       2219.       2225.       2206.       2177.       2150.       2124.       2103.       2090.    
        2085.       2083.       2083.       2083.       2076.       2059.       2043.       2036.       2037.       2039.    
        2036.       2025.       2017.       2033.       2050.       2053.       2062.       0.000       0.000    
  54    0.000       0.000       2587.       2556.       2513.       2486.       2469.       2452.       2429.       2429.    
        2433.       2440.       2452.       2457.       2459.       2465.       2460.       2433.       2409.       2388.    
        2361.       2341.       2327.       2315.       2306.       2289.       2265.       2245.       2225.       2206.    
        2192.       2183.       2171.       2162.       2153.       2145.       2141.       2135.       2137.       2147.    
        2161.       2173.       2190.       2202.       2213.       2213.       2188.       2161.       2152.       2144.    
        2159.       2190.       2216.       2228.       2215.       2184.       2159.       2137.       2114.       2100.    
        2095.       2096.       2093.       2090.       2086.       2068.       2053.       2046.       2050.       2053.    
        2054.       2042.       2029.       2037.       2053.       2061.       2066.       0.000       0.000    
  55    0.000       2614.       2586.       2557.       2533.       2508.       2483.       2465.       2441.       2447.    
        2445.       2456.       2464.       2469.       2473.       2479.       2481.       2453.       2428.       2407.    
        2380.       2357.       2339.       2325.       2313.       2297.       2275.       2254.       2232.       2209.    
        2194.       2182.       2171.       2161.       2153.       2146.       2143.       2138.       2144.       2157.    
        2172.       2189.       2207.       2223.       2235.       2236.       2205.       2180.       2166.       2159.    
        2165.       2187.       2212.       2232.       2225.       2194.       2169.       2153.       2134.       2112.    
        2108.       2106.       2104.       2098.       2091.       2078.       2067.       2058.       2062.       2067.    
        2068.       2066.       2041.       2048.       2058.       2065.       2072.       0.000       0.000    
  56    0.000       2609.       2575.       2545.       2535.       2525.       2504.       2475.       2466.       2456.    
        2453.       2469.       2478.       2479.       2484.       2492.       2493.       2471.       2450.       2428.    
        2405.       2378.       2354.       2337.       2320.       2306.       2285.       2263.       2238.       2212.    
        2199.       2186.       2172.       2161.       2155.       2150.       2146.       2143.       2150.       2164.    
        2182.       2201.       2222.       2239.       2254.       2254.       2219.       2198.       2182.       2175.    
        2170.       2183.       2211.       2234.       2232.       2202.       2182.       2164.       2146.       2128.    
        2118.       2119.       2118.       2108.       2096.       2086.       2076.       2070.       2072.       2080.    
        2085.       2080.       2052.       2057.       2069.       2075.       2076.       0.000       0.000    
  57    2638.       2599.       2549.       2534.       2537.       2532.       2507.       2508.       2481.       2467.    
        2482.       2493.       2494.       2492.       2498.       2505.       2506.       2491.       2474.       2450.    
        2423.       2401.       2369.       2350.       2330.       2313.       2295.       2273.       2243.       2221.    
        2203.       2187.       2174.       2163.       2156.       2151.       2147.       2148.       2155.       2167.    
        2182.       2202.       2226.       2241.       2256.       2263.       2242.       2214.       2198.       2189.    
        2181.       2189.       2211.       2238.       2245.       2215.       2195.       2177.       2161.       2146.    
        2132.       2137.       2135.       2122.       2106.       2096.       2088.       2080.       2081.       2088.    
        2095.       2090.       2063.       2070.       2075.       2079.       2081.       0.000       0.000    
  58    2641.       2597.       2553.       2535.       2525.       2517.       2530.       2526.       2492.       2494.    
        2504.       2513.       2514.       2505.       2510.       2516.       2520.       2507.       2485.       2461.    
        2435.       2413.       2389.       2363.       2343.       2323.       2305.       2280.       2252.       2227.    
        2210.       2192.       2178.       2167.       2158.       2153.       2150.       2150.       2156.       2165.    
        2178.       2197.       2216.       2233.       2254.       2266.       2271.       2237.       2218.       2206.    
        2198.       2198.       2215.       2242.       2254.       2230.       2210.       2193.       2177.       2160.    
        2149.       2153.       2150.       2138.       2122.       2109.       2099.       2093.       2093.       2098.    
        2095.       2087.       2074.       2081.       2083.       2084.       2086.       0.000       0.000    
  59    2648.       2611.       2564.       2542.       2531.       2523.       2548.       2546.       2534.       2520.    
        2526.       2533.       2530.       2524.       2524.       2526.       2534.       2519.       2496.       2472.    
        2442.       2422.       2400.       2373.       2352.       2333.       2311.       2285.       2257.       2235.    
        2214.       2198.       2181.       2170.       2160.       2155.       2151.       2152.       2158.       2165.    
        2178.       2195.       2215.       2233.       2252.       2270.       2277.       2263.       2236.       2224.    
        2215.       2212.       2219.       2246.       2260.       2245.       2225.       2211.       2196.       2179.    
        2166.       2170.       2164.       2152.       2136.       2119.       2113.       2105.       2107.       2106.    
        2096.       2087.       2085.       2089.       2088.       2090.       2096.       2103.       0.000    
  60    0.000       2632.       2600.       2575.       2565.       2550.       2575.       2578.       2573.       2560.    
        2560.       2553.       2541.       0.000       0.000       0.000       2543.       2529.       2506.       2479.    
        2453.       2428.       2404.       2388.       2372.       2346.       2319.       2290.       2267.       2242.    
        2217.       2203.       2187.       2173.       2164.       2157.       2153.       2154.       2158.       2166.    
        2177.       2196.       2215.       2232.       2255.       2278.       2288.       2280.       2259.       2238.    
        2229.       2226.       2225.       2245.       2262.       2256.       2241.       2228.       2211.       2198.    
        2188.       2194.       2188.       2170.       2152.       2135.       2128.       2122.       2120.       2111.    
        2098.       2091.       2093.       2096.       2095.       2099.       2107.       2112.       2115.    
  61    0.000       0.000       2629.       2621.       2602.       2599.       2598.       2594.       2603.       2605.    
        2588.       0.000       0.000       0.000       0.000       0.000       0.000       2536.       2509.       2484.    
        2458.       2430.       2408.       2390.       2382.       2350.       2323.       2297.       2273.       2245.    
        2225.       2211.       2190.       2177.       2168.       2159.       2156.       2155.       2159.       2166.    
        2178.       2194.       2214.       2234.       2256.       2282.       2303.       2299.       2276.       2256.    
        2241.       2235.       2236.       2244.       2262.       2266.       2258.       2245.       2228.       2215.    
        2205.       2211.       2211.       2189.       2170.       2154.       2142.       2133.       2127.       2112.    
        2103.       2097.       2101.       2103.       2103.       2110.       2116.       2119.       2122.    
  62    0.000       0.000       0.000       2626.       0.000       0.000       0.000       0.000       0.000       0.000    
        0.000       0.000       0.000       0.000       0.000       0.000       0.000       0.000       0.000       2487.    
        2461.       2433.       2407.       2392.       2377.       2349.       2328.       2303.       2276.       2251.    
        2230.       2213.       2195.       2181.       2171.       2163.       2159.       2157.       2159.       2167.    
        2178.       2193.       2214.       2232.       2253.       2280.       2306.       2313.       2301.       2273.    
        2257.       2247.       2246.       2248.       2260.       2274.       2274.       2263.       2249.       2235.    
        2219.       2229.       2226.       2210.       2189.       2172.       2158.       2142.       2127.       2116.    
        2107.       2106.       2109.       2108.       2112.       2117.       2123.       2127.       2130.    
  63    0.000       0.000       0.000       0.000       0.000       0.000       0.000       0.000       0.000       0.000    
        0.000       0.000       0.000       0.000       0.000       0.000       0.000       0.000       0.000       2489.    
        2464.       2429.       2407.       2391.       2377.       2352.       2331.       2307.       2283.       2253.    
        2233.       2218.       2203.       2184.       2173.       2166.       2162.       2159.       2162.       2168.    
        2177.       2192.       2211.       2229.       2252.       2272.       2298.       2321.       2318.       2298.    
        2271.       2261.       2256.       2255.       2265.       2278.       2289.       2283.       2272.       2264.    
        2252.       2250.       2247.       2229.       2211.       2187.       2167.       2151.       2135.       2120.    
        2112.       2113.       2114.       2115.       2118.       2124.       2129.       2134.       2138.    
  64    0.000       0.000       0.000       0.000       0.000       0.000       0.000       0.000       0.000       0.000    
        0.000       0.000       0.000       0.000       0.000       0.000       0.000       0.000       0.000       0.000    
        0.000       0.000       0.000       0.000       2379.       2359.       2337.       2314.       2291.       2259.    
        2240.       2221.       2208.       2193.       2176.       2168.       2164.       2162.       2163.       2167.    
        2177.       2189.       2208.       2226.       2247.       2270.       2294.       2316.       2328.       2320.    
        2297.       2281.       2276.       2268.       2270.       2281.       2294.       2302.       2298.       2287.    
        2278.       2274.       2265.       2251.       2230.       2201.       2173.       2155.       2139.       2125.    
        2119.       2119.       2120.       2120.       2123.       2128.       2135.       2142.       2147.    
  65    0.000       0.000       0.000       0.000       0.000       0.000       0.000       0.000       0.000       0.000    
        0.000       0.000       0.000       0.000       0.000       0.000       0.000       0.000       0.000       0.000    
        0.000       0.000       0.000       0.000       0.000       0.000       0.000       0.000       0.000       0.000    
        0.000       0.000       0.000       2197.       2184.       2171.       2166.       2164.       2164.       2168.    
        2175.       2188.       2203.       2220.       2242.       0.000       0.000       0.000       0.000       2331.    
        2320.       2310.       2305.       2289.       2277.       2282.       2295.       2310.       2316.       2308.    
        2301.       2292.       2278.       2262.       2240.       2211.       2181.       2157.       2144.       2131.    
        2128.       2126.       2127.       2127.       2127.       2133.       2139.       2146.       2151.    
  66    0.000       0.000       0.000       0.000       0.000       0.000       0.000       0.000       0.000       0.000    
        0.000       0.000       0.000       0.000       0.000       0.000       0.000       0.000       0.000       0.000    
        0.000       0.000       0.000       0.000       0.000       0.000       0.000       0.000       0.000       0.000    
        0.000       0.000       0.000       0.000       0.000       2176.       2170.       0.000       0.000       0.000    
        0.000       0.000       0.000       0.000       0.000       0.000       0.000       0.000       0.000       0.000    
        2328.       2325.       2324.       2307.       2292.       2288.       2298.       2315.       2329.       2326.    
        2318.       2304.       2289.       2268.       2246.       2215.       2184.       2163.       2151.       2143.    
        2141.       2136.       2135.       2132.       2130.       2134.       2141.       2147.       2155.    
  67    0.000       0.000       0.000       0.000       0.000       0.000       0.000       0.000       0.000       0.000    
        0.000       0.000       0.000       0.000       0.000       0.000       0.000       0.000       0.000       0.000    
        0.000       0.000       0.000       0.000       0.000       0.000       0.000       0.000       0.000       0.000    
        0.000       0.000       0.000       0.000       0.000       0.000       0.000       0.000       0.000       0.000    
        0.000       0.000       0.000       0.000       0.000       0.000       0.000       0.000       0.000       0.000    
        0.000       0.000       2332.       2322.       2304.       2296.       2301.       2315.       2334.       2339.    
        2330.       2317.       2292.       2272.       2250.       2220.       2193.       2168.       2159.       2154.    
        2146.       0.000       0.000       0.000       0.000       0.000       0.000       0.000       0.000    
  68    0.000       0.000       0.000       0.000       0.000       0.000       0.000       0.000       0.000       0.000    
        0.000       0.000       0.000       0.000       0.000       0.000       0.000       0.000       0.000       0.000    
        0.000       0.000       0.000       0.000       0.000       0.000       0.000       0.000       0.000       0.000    
        0.000       0.000       0.000       0.000       0.000       0.000       0.000       0.000       0.000       0.000    
        0.000       0.000       0.000       0.000       0.000       0.000       0.000       0.000       0.000       0.000    
        0.000       0.000       0.000       2330.       2314.       2304.       2301.       2311.       2327.       2347.    
        2336.       2322.       2300.       2278.       2256.       2226.       2200.       2179.       0.000       0.000    
        0.000       0.000       0.000       0.000       0.000       0.000       0.000       0.000       0.000    
  69    0.000       0.000       0.000       0.000       0.000       0.000       0.000       0.000       0.000       0.000    
        0.000       0.000       0.000       0.000       0.000       0.000       0.000       0.000       0.000       0.000    
        0.000       0.000       0.000       0.000       0.000       0.000       0.000       0.000       0.000       0.000    
        0.000       0.000       0.000       0.000       0.000       0.000       0.000       0.000       0.000       0.000    
        0.000       0.000       0.000       0.000       0.000       0.000       0.000       0.000       0.000       0.000    
        0.000       0.000       0.000       0.000       0.000       0.000       0.000       0.000       0.000       0.000    
        2349.       2331.       2310.       2288.       2265.       2237.       2212.       0.000       0.000       0.000    
        0.000       0.000       0.000       0.000       0.000       0.000       0.000       0.000       0.000    
  70    0.000       0.000       0.000       0.000       0.000       0.000       0.000       0.000       0.000       0.000    
        0.000       0.000       0.000       0.000       0.000       0.000       0.000       0.000       0.000       0.000    
        0.000       0.000       0.000       0.000       0.000       0.000       0.000       0.000       0.000       0.000    
        0.000       0.000       0.000       0.000       0.000       0.000       0.000       0.000       0.000       0.000    
        0.000       0.000       0.000       0.000       0.000       0.000       0.000       0.000       0.000       0.000    
        0.000       0.000       0.000       0.000       0.000       0.000       0.000       0.000       0.000       0.000    
        0.000       2345.       2324.       2300.       2278.       2247.       0.000       0.000       0.000       0.000    
        0.000       0.000       0.000       0.000       0.000       0.000       0.000       0.000       0.000    
  71    0.000       0.000       0.000       0.000       0.000       0.000       0.000       0.000       0.000       0.000    
        0.000       0.000       0.000       0.000       0.000       0.000       0.000       0.000       0.000       0.000    
        0.000       0.000       0.000       0.000       0.000       0.000       0.000       0.000       0.000       0.000    
        0.000       0.000       0.000       0.000       0.000       0.000       0.000       0.000       0.000       0.000    
        0.000       0.000       0.000       0.000       0.000       0.000       0.000       0.000       0.000       0.000    
        0.000       0.000       0.000       0.000       0.000       0.000       0.000       0.000       0.000       0.000    
        0.000       0.000       2339.       2313.       0.000       0.000       0.000       0.000       0.000       0.000    
        0.000       0.000       0.000       0.000       0.000       0.000       0.000       0.000       0.000    



             MODEL LAYER BOTTOM EL. FOR LAYER   1
 READING ON UNIT   11 WITH FORMAT: (FREE)              

            1           2           3           4           5           6           7           8           9          10
           11          12          13          14          15          16          17          18          19          20
           21          22          23          24          25          26          27          28          29          30
           31          32          33          34          35          36          37          38          39          40
           41          42          43          44          45          46          47          48          49          50
           51          52          53          54          55          56          57          58          59          60
           61          62          63          64          65          66          67          68          69          70
           71          72          73          74          75          76          77          78          79
 ........................................................................................................................
   1    0.000       0.000       0.000       0.000       0.000       0.000       0.000       0.000       0.000       0.000    
        0.000       0.000       0.000       0.000       0.000       0.000       0.000       0.000       0.000       0.000    
        0.000       0.000       0.000       0.000       0.000       0.000       0.000       0.000       0.000       0.000    
        0.000       0.000       0.000       0.000       0.000       0.000       0.000       0.000       0.000       0.000    
        0.000       0.000       0.000       0.000       0.000       0.000       0.000       0.000       0.000       0.000    
        0.000       2173.       2163.       0.000       0.000       0.000       0.000       0.000       0.000       0.000    
        0.000       0.000       0.000       0.000       0.000       0.000       0.000       0.000       0.000       0.000    
        0.000       0.000       0.000       0.000       0.000       0.000       0.000       0.000       0.000    
   2    0.000       0.000       0.000       0.000       0.000       0.000       0.000       0.000       0.000       0.000    
        0.000       0.000       0.000       0.000       0.000       0.000       0.000       0.000       0.000       0.000    
        0.000       0.000       0.000       0.000       0.000       0.000       0.000       0.000       0.000       0.000    
        0.000       0.000       0.000       0.000       0.000       0.000       0.000       0.000       0.000       0.000    
        0.000       0.000       0.000       0.000       0.000       0.000       0.000       0.000       0.000       0.000    
        0.000       2171.       2157.       2132.       0.000       0.000       0.000       0.000       0.000       0.000    
        0.000       0.000       0.000       0.000       0.000       0.000       0.000       0.000       0.000       0.000    
        0.000       0.000       0.000       0.000       0.000       0.000       0.000       0.000       0.000    
   3    0.000       0.000       0.000       0.000       0.000       0.000       0.000       0.000       0.000       0.000    
        0.000       0.000       0.000       0.000       0.000       0.000       0.000       0.000       0.000       0.000    
        0.000       0.000       0.000       0.000       0.000       0.000       0.000       0.000       0.000       0.000    
        0.000       0.000       0.000       0.000       0.000       0.000       0.000       0.000       0.000       0.000    
        0.000       0.000       0.000       0.000       0.000       0.000       0.000       0.000       0.000       0.000    
        0.000       2164.       2149.       2122.       0.000       0.000       0.000       0.000       0.000       0.000    
        0.000       0.000       0.000       0.000       0.000       0.000       0.000       0.000       0.000       0.000    
        0.000       0.000       0.000       0.000       0.000       0.000       0.000       0.000       0.000    
   4    0.000       0.000       0.000       0.000       0.000       0.000       0.000       0.000       0.000       0.000    
        0.000       0.000       0.000       0.000       0.000       0.000       0.000       0.000       0.000       0.000    
        0.000       0.000       0.000       0.000       0.000       0.000       0.000       0.000       0.000       0.000    
        0.000       0.000       0.000       0.000       0.000       0.000       0.000       0.000       0.000       0.000    
        0.000       0.000       0.000       0.000       0.000       0.000       0.000       0.000       0.000       0.000    
        0.000       2157.       2138.       2121.       2120.       0.000       0.000       0.000       0.000       0.000    
        0.000       0.000       0.000       0.000       0.000       0.000       0.000       0.000       0.000       0.000    
        0.000       0.000       0.000       0.000       0.000       0.000       0.000       0.000       0.000    
   5    0.000       0.000       0.000       0.000       0.000       0.000       0.000       0.000       0.000       0.000    
        0.000       0.000       0.000       0.000       0.000       0.000       0.000       0.000       0.000       0.000    
        0.000       0.000       0.000       0.000       0.000       0.000       0.000       0.000       0.000       0.000    
        0.000       0.000       0.000       0.000       0.000       0.000       0.000       0.000       0.000       0.000    
        0.000       0.000       0.000       0.000       0.000       0.000       0.000       0.000       0.000       0.000    
        0.000       2151.       2131.       2120.       2118.       2118.       2116.       0.000       0.000       0.000    
        0.000       0.000       0.000       0.000       0.000       0.000       0.000       0.000       0.000       0.000    
        0.000       0.000       0.000       0.000       0.000       0.000       0.000       0.000       0.000    
   6    0.000       0.000       0.000       0.000       0.000       0.000       0.000       0.000       0.000       0.000    
        0.000       0.000       0.000       0.000       0.000       0.000       0.000       0.000       0.000       0.000    
        0.000       0.000       0.000       0.000       0.000       0.000       0.000       0.000       0.000       0.000    
        0.000       0.000       0.000       0.000       0.000       0.000       0.000       0.000       0.000       0.000    
        0.000       0.000       0.000       0.000       0.000       0.000       0.000       0.000       0.000       0.000    
        0.000       2149.       2132.       2121.       2119.       2116.       2114.       2116.       2120.       0.000    
        0.000       0.000       0.000       2122.       2124.       0.000       0.000       0.000       0.000       0.000    
        0.000       0.000       0.000       0.000       0.000       0.000       0.000       0.000       0.000    
   7    0.000       0.000       0.000       0.000       0.000       0.000       0.000       0.000       0.000       0.000    
        0.000       0.000       0.000       0.000       0.000       0.000       0.000       0.000       0.000       0.000    
        0.000       0.000       0.000       0.000       0.000       0.000       0.000       0.000       0.000       0.000    
        0.000       0.000       0.000       0.000       0.000       0.000       0.000       0.000       0.000       0.000    
        0.000       0.000       0.000       0.000       0.000       0.000       0.000       0.000       0.000       0.000    
        0.000       2151.       2136.       2132.       2120.       2113.       2111.       2114.       2119.       2122.    
        2126.       2124.       2121.       2119.       2122.       2123.       0.000       0.000       0.000       0.000    
        0.000       0.000       0.000       0.000       0.000       0.000       0.000       0.000       0.000    
   8    0.000       0.000       0.000       0.000       0.000       0.000       0.000       0.000       0.000       0.000    
        0.000       0.000       0.000       0.000       0.000       0.000       0.000       0.000       0.000       0.000    
        0.000       0.000       0.000       0.000       0.000       0.000       0.000       0.000       0.000       0.000    
        0.000       0.000       0.000       0.000       0.000       0.000       0.000       0.000       0.000       0.000    
        0.000       0.000       0.000       0.000       0.000       0.000       0.000       0.000       0.000       0.000    
        0.000       2158.       2146.       2136.       2120.       2109.       2109.       2111.       2117.       2123.    
        2126.       2125.       2122.       2117.       2116.       2117.       2117.       2118.       0.000       0.000    
        0.000       0.000       0.000       0.000       0.000       0.000       0.000       0.000       0.000    
   9    0.000       0.000       0.000       0.000       0.000       0.000       0.000       0.000       0.000       0.000    
        0.000       0.000       0.000       0.000       0.000       0.000       0.000       0.000       0.000       0.000    
        0.000       0.000       0.000       0.000       0.000       0.000       0.000       0.000       0.000       0.000    
        0.000       0.000       0.000       0.000       0.000       0.000       0.000       0.000       0.000       0.000    
        0.000       0.000       0.000       0.000       0.000       0.000       0.000       0.000       0.000       0.000    
        2160.       2152.       2141.       2132.       2121.       2110.       2106.       2108.       2110.       2119.    
        2125.       2125.       2122.       2116.       2110.       2108.       2111.       2116.       2120.       0.000    
        0.000       0.000       0.000       0.000       0.000       0.000       0.000       0.000       0.000    
  10    0.000       0.000       0.000       0.000       0.000       0.000       0.000       0.000       0.000       0.000    
        0.000       0.000       0.000       0.000       0.000       0.000       0.000       0.000       0.000       0.000    
        0.000       0.000       0.000       0.000       0.000       0.000       0.000       0.000       0.000       0.000    
        0.000       0.000       0.000       0.000       0.000       0.000       0.000       0.000       0.000       0.000    
        0.000       0.000       0.000       0.000       0.000       0.000       0.000       0.000       0.000       2151.    
        2154.       2147.       2140.       2130.       2117.       2111.       2106.       2107.       2108.       2115.    
        2120.       2121.       2119.       2116.       2111.       2099.       2106.       2115.       2122.       2127.    
        0.000       0.000       0.000       0.000       0.000       0.000       0.000       0.000       0.000    
  11    0.000       0.000       0.000       0.000       0.000       0.000       0.000       0.000       0.000       0.000    
        0.000       0.000       0.000       0.000       0.000       0.000       0.000       0.000       0.000       0.000    
        0.000       0.000       0.000       0.000       0.000       0.000       0.000       0.000       0.000       0.000    
        0.000       0.000       0.000       0.000       0.000       0.000       0.000       0.000       0.000       0.000    
        0.000       0.000       0.000       0.000       0.000       0.000       0.000       0.000       2150.       2148.    
        2146.       2143.       2139.       2130.       2118.       2111.       2106.       2105.       2105.       2108.    
        2112.       2112.       2113.       2112.       2107.       2097.       2104.       2112.       2119.       2125.    
        2130.       0.000       0.000       0.000       0.000       0.000       0.000       0.000       0.000    
  12    0.000       0.000       0.000       0.000       0.000       0.000       0.000       0.000       0.000       0.000    
        0.000       0.000       0.000       0.000       0.000       0.000       0.000       0.000       0.000       0.000    
        0.000       0.000       0.000       0.000       0.000       0.000       0.000       0.000       0.000       0.000    
        0.000       0.000       0.000       0.000       0.000       0.000       0.000       0.000       0.000       0.000    
        0.000       2187.       2181.       0.000       0.000       0.000       0.000       2156.       2152.       2146.    
        2143.       2137.       2136.       2135.       2121.       2112.       2108.       2103.       2101.       2102.    
        2104.       2106.       2107.       2106.       2101.       2094.       2097.       2105.       2112.       2123.    
        2128.       0.000       0.000       0.000       0.000       0.000       0.000       0.000       0.000    
  13    0.000       0.000       0.000       0.000       0.000       0.000       0.000       0.000       0.000       0.000    
        0.000       0.000       0.000       0.000       0.000       0.000       0.000       0.000       0.000       0.000    
        0.000       0.000       0.000       0.000       0.000       0.000       0.000       0.000       0.000       0.000    
        0.000       0.000       0.000       0.000       0.000       0.000       0.000       0.000       2188.       2185.    
        2184.       2182.       2171.       2167.       2165.       2164.       2161.       2157.       2150.       2144.    
        2139.       2134.       2131.       2128.       2122.       2114.       2108.       2102.       2098.       2096.    
        2097.       2098.       2103.       2101.       2096.       2088.       2089.       2096.       2108.       2121.    
        2123.       2124.       0.000       0.000       0.000       0.000       0.000       0.000       0.000    
  14    0.000       0.000       0.000       0.000       0.000       0.000       0.000       0.000       0.000       0.000    
        0.000       0.000       0.000       0.000       0.000       0.000       0.000       0.000       0.000       0.000    
        0.000       0.000       0.000       0.000       0.000       0.000       0.000       0.000       0.000       0.000    
        0.000       0.000       0.000       0.000       0.000       0.000       0.000       0.000       2188.       2178.    
        2172.       2168.       2158.       2157.       2157.       2161.       2160.       2155.       2148.       2142.    
        2137.       2132.       2128.       2124.       2120.       2116.       2110.       2104.       2098.       2092.    
        2092.       2094.       2097.       2097.       2089.       2081.       2080.       2087.       2098.       2113.    
        2116.       2118.       2118.       0.000       0.000       0.000       0.000       0.000       0.000    
  15    0.000       0.000       0.000       0.000       0.000       0.000       0.000       0.000       0.000       0.000    
        0.000       0.000       0.000       0.000       0.000       0.000       0.000       0.000       0.000       0.000    
        0.000       0.000       0.000       0.000       0.000       0.000       0.000       0.000       0.000       0.000    
        0.000       0.000       0.000       0.000       0.000       0.000       0.000       2197.       2186.       2178.    
        2170.       2153.       2145.       2143.       2143.       2150.       2152.       2151.       2146.       2140.    
        2134.       2129.       2124.       2120.       2116.       2113.       2111.       2106.       2100.       2091.    
        2087.       2090.       2092.       2090.       2087.       2078.       2073.       2078.       2085.       2097.    
        2105.       2110.       2114.       0.000       0.000       0.000       0.000       0.000       0.000    
  16    0.000       0.000       0.000       0.000       0.000       0.000       0.000       0.000       0.000       0.000    
        0.000       0.000       0.000       0.000       0.000       0.000       0.000       0.000       0.000       0.000    
        0.000       0.000       0.000       0.000       0.000       0.000       0.000       0.000       0.000       0.000    
        0.000       0.000       0.000       0.000       0.000       0.000       2207.       2195.       2186.       2175.    
        2164.       2155.       2150.       2146.       2135.       2136.       2137.       2140.       2139.       2136.    
        2132.       2125.       2120.       2115.       2111.       2109.       2107.       2105.       2101.       2097.    
        2083.       2086.       2089.       2088.       2086.       2078.       2070.       2070.       2072.       2084.    
        2092.       2102.       2109.       2110.       0.000       0.000       0.000       0.000       0.000    
  17    0.000       0.000       0.000       0.000       0.000       0.000       0.000       0.000       0.000       0.000    
        0.000       0.000       0.000       0.000       0.000       0.000       0.000       0.000       0.000       0.000    
        0.000       0.000       0.000       0.000       0.000       0.000       0.000       0.000       0.000       0.000    
        0.000       0.000       0.000       0.000       0.000       2208.       2202.       2186.       2179.       2170.    
        2158.       2155.       2152.       2148.       2135.       2124.       2122.       2122.       2129.       2129.    
        2125.       2119.       2113.       2110.       2108.       2106.       2105.       2103.       2100.       2097.    
        2083.       2082.       2087.       2085.       2078.       2067.       2065.       2062.       2063.       2069.    
        2077.       2093.       2101.       2103.       0.000       0.000       0.000       0.000       0.000    
  18    0.000       0.000       0.000       0.000       0.000       0.000       0.000       0.000       0.000       0.000    
        0.000       0.000       0.000       0.000       0.000       0.000       0.000       0.000       0.000       0.000    
        0.000       0.000       0.000       0.000       0.000       0.000       0.000       0.000       0.000       0.000    
        0.000       0.000       0.000       0.000       2214.       2207.       2194.       2182.       2174.       2167.    
        2158.       2155.       2150.       2146.       2133.       2126.       2117.       2105.       2115.       2120.    
        2117.       2111.       2108.       2104.       2102.       2102.       2102.       2101.       2099.       2093.    
        2086.       2073.       2078.       2075.       2067.       2060.       2060.       2057.       2057.       2057.    
        2066.       2081.       2091.       2096.       0.000       0.000       0.000       0.000       0.000    
  19    0.000       0.000       0.000       0.000       0.000       0.000       0.000       0.000       0.000       0.000    
        0.000       0.000       0.000       0.000       0.000       0.000       0.000       0.000       0.000       0.000    
        0.000       0.000       0.000       0.000       0.000       0.000       0.000       0.000       0.000       0.000    
        0.000       0.000       0.000       2220.       2210.       2210.       2195.       2184.       2181.       2172.    
        2163.       2157.       2151.       2147.       2139.       2133.       2117.       2092.       2099.       2108.    
        2109.       2103.       2102.       2099.       2097.       2098.       2100.       2100.       2098.       2089.    
        2081.       2071.       2063.       2063.       2060.       2055.       2057.       2057.       2057.       2057.    
        2058.       2070.       2084.       2096.       0.000       0.000       0.000       0.000       0.000    
  20    0.000       0.000       0.000       0.000       0.000       0.000       0.000       0.000       0.000       0.000    
        0.000       0.000       0.000       0.000       0.000       0.000       0.000       0.000       0.000       0.000    
        0.000       0.000       0.000       0.000       0.000       0.000       0.000       0.000       0.000       0.000    
        0.000       0.000       0.000       2220.       2227.       2228.       2210.       2199.       2187.       2179.    
        2172.       2159.       2149.       2146.       2138.       2132.       2113.       2087.       2089.       2095.    
        2099.       2095.       2095.       2093.       2093.       2094.       2098.       2097.       2092.       2084.    
        2077.       2069.       2060.       2054.       2055.       2053.       2056.       2059.       2060.       2062.    
        2060.       2067.       2083.       2110.       0.000       0.000       0.000       0.000       0.000    
  21    0.000       0.000       0.000       0.000       0.000       0.000       0.000       0.000       0.000       0.000    
        0.000       0.000       0.000       0.000       0.000       0.000       0.000       0.000       0.000       0.000    
        0.000       0.000       0.000       0.000       0.000       0.000       0.000       0.000       0.000       0.000    
        0.000       0.000       2239.       2239.       2243.       2230.       2210.       2194.       2179.       2168.    
        2158.       2148.       2139.       2131.       2124.       2116.       2100.       2077.       2074.       2081.    
        2087.       2085.       2085.       2085.       2088.       2091.       2095.       2092.       2085.       2080.    
        2075.       2067.       2060.       2051.       2051.       2052.       2061.       2065.       2073.       2073.    
        2070.       2070.       2082.       2097.       2107.       0.000       0.000       0.000       0.000    
  22    0.000       0.000       0.000       0.000       0.000       0.000       0.000       0.000       0.000       0.000    
        0.000       0.000       0.000       0.000       0.000       0.000       0.000       0.000       0.000       0.000    
        0.000       0.000       0.000       0.000       0.000       0.000       0.000       0.000       0.000       0.000    
        0.000       0.000       2248.       2245.       2232.       2215.       2199.       2183.       2171.       2162.    
        2151.       2138.       2126.       2114.       2100.       2092.       2075.       2065.       2060.       2068.    
        2077.       2077.       2076.       2080.       2085.       2088.       2091.       2087.       2081.       2075.    
        2071.       2066.       2061.       2051.       2048.       2051.       2058.       2065.       2070.       2075.    
        2080.       2077.       2077.       2087.       0.000       0.000       0.000       0.000       0.000    
  23    0.000       0.000       0.000       0.000       0.000       0.000       0.000       0.000       0.000       0.000    
        0.000       0.000       0.000       0.000       0.000       0.000       0.000       0.000       0.000       0.000    
        0.000       0.000       0.000       0.000       0.000       0.000       0.000       0.000       0.000       0.000    
        0.000       2257.       2243.       2230.       2216.       2201.       2185.       2173.       2160.       2150.    
        2144.       2136.       2123.       2111.       2092.       2073.       2062.       2055.       2049.       2060.    
        2067.       2067.       2069.       2074.       2082.       2085.       2089.       2088.       2079.       2071.    
        2069.       2065.       2061.       2050.       2045.       2047.       2053.       2062.       2070.       2077.    
        2086.       0.000       0.000       0.000       0.000       0.000       0.000       0.000       0.000    
  24    0.000       0.000       0.000       0.000       0.000       0.000       0.000       0.000       0.000       0.000    
        0.000       0.000       0.000       0.000       0.000       0.000       0.000       0.000       0.000       0.000    
        0.000       0.000       0.000       0.000       0.000       0.000       0.000       0.000       2253.       2258.    
        2251.       2240.       2226.       2212.       2199.       2182.       2169.       2156.       2145.       2136.    
        2129.       2119.       2111.       2105.       2093.       2075.       2059.       2047.       2040.       2050.    
        2054.       2054.       2059.       2073.       2077.       2081.       2085.       2086.       2077.       2071.    
        2066.       2065.       2062.       2048.       2045.       2045.       2047.       2056.       2067.       2077.    
        2087.       0.000       0.000       0.000       0.000       0.000       0.000       0.000       0.000    
  25    0.000       0.000       0.000       0.000       0.000       0.000       0.000       0.000       0.000       0.000    
        0.000       0.000       0.000       0.000       0.000       0.000       0.000       0.000       0.000       0.000    
        0.000       0.000       0.000       0.000       0.000       0.000       0.000       2265.       2240.       2229.    
        2229.       2218.       2207.       2196.       2181.       2168.       2155.       2139.       2126.       2119.    
        2113.       2106.       2097.       2092.       2087.       2077.       2058.       2045.       2035.       2038.    
        2042.       2043.       2049.       2064.       2071.       2074.       2078.       2081.       2075.       2065.    
        2062.       2062.       2062.       2057.       2049.       2049.       2045.       2048.       2059.       2068.    
        2079.       0.000       0.000       0.000       0.000       0.000       0.000       0.000       0.000    
  26    0.000       0.000       0.000       0.000       0.000       0.000       0.000       0.000       0.000       0.000    
        0.000       0.000       0.000       0.000       0.000       0.000       0.000       0.000       0.000       0.000    
        0.000       0.000       0.000       0.000       0.000       2274.       2259.       2237.       2212.       2203.    
        2202.       2196.       2187.       2177.       2164.       2151.       2135.       2119.       2108.       2103.    
        2098.       2088.       2083.       2079.       2077.       2072.       2061.       2042.       2033.       2026.    
        2027.       2032.       2040.       2053.       2064.       2068.       2071.       2074.       2070.       2061.    
        2057.       2059.       2058.       2058.       2057.       2050.       2049.       2042.       2049.       2058.    
        2065.       0.000       0.000       0.000       0.000       0.000       0.000       0.000       0.000    
  27    0.000       0.000       0.000       0.000       0.000       0.000       0.000       0.000       0.000       0.000    
        0.000       0.000       0.000       0.000       0.000       0.000       0.000       0.000       0.000       0.000    
        0.000       0.000       0.000       0.000       2273.       2252.       2235.       2217.       2193.       2175.    
        2179.       2176.       2170.       2159.       2147.       2130.       2112.       2101.       2095.       2088.    
        2080.       2074.       2068.       2068.       2067.       2066.       2058.       2046.       2037.       2026.    
        2019.       2023.       2031.       2043.       2058.       2062.       2064.       2065.       2061.       2056.    
        2052.       2052.       2053.       2057.       2057.       2054.       2052.       2041.       2043.       2048.    
        2052.       0.000       0.000       0.000       0.000       0.000       0.000       0.000       0.000    
  28    0.000       0.000       0.000       0.000       0.000       0.000       0.000       0.000       0.000       0.000    
        0.000       0.000       0.000       0.000       0.000       0.000       0.000       0.000       0.000       0.000    
        0.000       0.000       0.000       2273.       2250.       2229.       2213.       2198.       2179.       2166.    
        2163.       2162.       2154.       2142.       2129.       2113.       2097.       2088.       2080.       2072.    
        2064.       2060.       2056.       2057.       2058.       2058.       2054.       2048.       2039.       2028.    
        2014.       2017.       2023.       2036.       2047.       2052.       2056.       2056.       2053.       2051.    
        2046.       2046.       2046.       2053.       2057.       2057.       2055.       2039.       2036.       2042.    
        2045.       2045.       0.000       0.000       0.000       0.000       0.000       0.000       0.000    
  29    0.000       0.000       0.000       0.000       0.000       0.000       0.000       0.000       0.000       0.000    
        0.000       0.000       0.000       0.000       0.000       0.000       0.000       0.000       0.000       0.000    
        0.000       2277.       2269.       2250.       2225.       2207.       2194.       2181.       2170.       2159.    
        2151.       2147.       2138.       2127.       2115.       2099.       2086.       2076.       2067.       2060.    
        2053.       2047.       2045.       2048.       2051.       2049.       2050.       2045.       2039.       2028.    
        2016.       2009.       2017.       2029.       2038.       2041.       2046.       2045.       2046.       2046.    
        2039.       2039.       2040.       2049.       2057.       2056.       2052.       2042.       2029.       2037.    
        2040.       2040.       0.000       0.000       0.000       0.000       0.000       0.000       0.000    
  30    0.000       0.000       0.000       0.000       0.000       0.000       0.000       0.000       0.000       0.000    
        0.000       0.000       0.000       0.000       0.000       0.000       0.000       0.000       0.000       2312.    
        2283.       2263.       2245.       2223.       2202.       2188.       2177.       2168.       2158.       2150.    
        2146.       2135.       2125.       2117.       2105.       2091.       2076.       2064.       2057.       2045.    
        2040.       2035.       2035.       2030.       2051.       2047.       2043.       2039.       2034.       2027.    
        2014.       2004.       2012.       2026.       2029.       2030.       2034.       2034.       2039.       2040.    
        2034.       2032.       2035.       2044.       2053.       2050.       2045.       2041.       2023.       2027.    
        2036.       2036.       0.000       0.000       0.000       0.000       0.000       0.000       0.000    
  31    0.000       0.000       0.000       0.000       0.000       0.000       0.000       0.000       0.000       0.000    
        0.000       0.000       0.000       0.000       0.000       0.000       0.000       0.000       2318.       2297.    
        2271.       2243.       2219.       2202.       2185.       2174.       2166.       2156.       2147.       2140.    
        2135.       2128.       2114.       2108.       2100.       2085.       2068.       2057.       2045.       2033.    
        2031.       2025.       2025.       2024.       2051.       2045.       2034.       2034.       2029.       2023.    
        2010.       1999.       2007.       2019.       2020.       2020.       2022.       2026.       2033.       2033.    
        2027.       2023.       2030.       2039.       2046.       2044.       2038.       2036.       2025.       2011.    
        2022.       2029.       0.000       0.000       0.000       0.000       0.000       0.000       0.000    
  32    0.000       0.000       0.000       0.000       0.000       0.000       0.000       0.000       0.000       0.000    
        0.000       0.000       0.000       0.000       0.000       0.000       2336.       2318.       2297.       2282.    
        2257.       2229.       2203.       2180.       2170.       2162.       2154.       2146.       2138.       2131.    
        2125.       2120.       2109.       2102.       2094.       2081.       2065.       2045.       2033.       2030.    
        2026.       2022.       2020.       2022.       2051.       2035.       2027.       2027.       2026.       2020.    
        2007.       1997.       1997.       2003.       2006.       2009.       2011.       2018.       2023.       2023.    
        2017.       2013.       2023.       2031.       2039.       2038.       2032.       2030.       2020.       2005.    
        2015.       2025.       0.000       0.000       0.000       0.000       0.000       0.000       0.000    
  33    0.000       0.000       0.000       0.000       0.000       0.000       0.000       0.000       0.000       0.000    
        0.000       0.000       0.000       0.000       0.000       2363.       2326.       2301.       2284.       2270.    
        2248.       2222.       2192.       2168.       2159.       2153.       2144.       2136.       2130.       2123.    
        2117.       2113.       2108.       2100.       2086.       2073.       2060.       2042.       2032.       2033.    
        2028.       2024.       2024.       2019.       2045.       2030.       2017.       2019.       2020.       2015.    
        2007.       1997.       1991.       1991.       1994.       1995.       1999.       2005.       2008.       2007.    
        2004.       2005.       2013.       2022.       2028.       2027.       2026.       2025.       2010.       2003.    
        2015.       2022.       2023.       0.000       0.000       0.000       0.000       0.000       0.000    
  34    0.000       0.000       0.000       0.000       0.000       0.000       0.000       0.000       0.000       0.000    
        0.000       0.000       0.000       0.000       2381.       2352.       2317.       2291.       2277.       2265.    
        2243.       2217.       2192.       2169.       2151.       2143.       2133.       2128.       2122.       2116.    
        2111.       2107.       2099.       2092.       2083.       2064.       2054.       2040.       2046.       2045.    
        2043.       2025.       2025.       2022.       2051.       2011.       2007.       2001.       2008.       2007.    
        2003.       1998.       1991.       1987.       1985.       1984.       1986.       1989.       1992.       1994.    
        1989.       1997.       2003.       2011.       2014.       2011.       2006.       2006.       1986.       1995.    
        2005.       2014.       2016.       0.000       0.000       0.000       0.000       0.000       0.000    
  35    0.000       0.000       0.000       0.000       0.000       0.000       0.000       0.000       0.000       0.000    
        0.000       0.000       0.000       2379.       2363.       2346.       2318.       2281.       2270.       2258.    
        2234.       2214.       2193.       2172.       2153.       2141.       2132.       2124.       2115.       2110.    
        2104.       2099.       2091.       2081.       2067.       2062.       2054.       2054.       2066.       2074.    
        2074.       2065.       2030.       2026.       2051.       2014.       2014.       2006.       1994.       1990.    
        1989.       1988.       1989.       1990.       1982.       1979.       1980.       1979.       1980.       1980.    
        1981.       1989.       1997.       1999.       2000.       2001.       1992.       1986.       1973.       1980.    
        1991.       2003.       2014.       2015.       0.000       0.000       0.000       0.000       0.000    
  36    0.000       0.000       0.000       0.000       0.000       0.000       0.000       0.000       0.000       0.000    
        0.000       0.000       0.000       2362.       2350.       2338.       2312.       2280.       2259.       2245.    
        2229.       2209.       2192.       2174.       2160.       2147.       2134.       2124.       2115.       2107.    
        2098.       2091.       2084.       2077.       2074.       2065.       2057.       2062.       2076.       2079.    
        2079.       2068.       2051.       2051.       2040.       2021.       2019.       2010.       1998.       1991.    
        1988.       1984.       1980.       1982.       1976.       1975.       1975.       1974.       1973.       1973.    
        1976.       1982.       1988.       1988.       1985.       1987.       1979.       1975.       1967.       1968.    
        1975.       1990.       2004.       2007.       2006.       0.000       0.000       0.000       0.000    
  37    0.000       0.000       0.000       0.000       0.000       0.000       0.000       0.000       0.000       0.000    
        0.000       0.000       2367.       2354.       2343.       2329.       2309.       2276.       2258.       2240.    
        2219.       2202.       2184.       2170.       2160.       2147.       2134.       2125.       2120.       2112.    
        2101.       2094.       2089.       2085.       2082.       2072.       2061.       2065.       2075.       2080.    
        2077.       2064.       2051.       2040.       2027.       2028.       2024.       2009.       2000.       1995.    
        1991.       1986.       1983.       1980.       1978.       1975.       1973.       1972.       1972.       1970.    
        1971.       1976.       1978.       1977.       1974.       1969.       1964.       1960.       1959.       1960.    
        1964.       1972.       1979.       1982.       1983.       0.000       0.000       0.000       0.000    
  38    0.000       0.000       0.000       0.000       0.000       0.000       0.000       0.000       0.000       0.000    
        2394.       2373.       2361.       2347.       2336.       2324.       2306.       2278.       2265.       2242.    
        2226.       2212.       2193.       2172.       2166.       2155.       2141.       2130.       2125.       2117.    
        2107.       2103.       2099.       2093.       2090.       2080.       2067.       2067.       2073.       2081.    
        2074.       2058.       2049.       2041.       2035.       2037.       2032.       2017.       2006.       1999.    
        1994.       1989.       1986.       1984.       1982.       1978.       1975.       1974.       1972.       1971.    
        1967.       1963.       1963.       1963.       1963.       1960.       1958.       1955.       1953.       1951.    
        1950.       1953.       1957.       1959.       1962.       1958.       0.000       0.000       0.000    
  39    0.000       0.000       0.000       0.000       0.000       0.000       0.000       2460.       2433.       2413.    
        2389.       2372.       2354.       2342.       2333.       2321.       2304.       2287.       2271.       2257.    
        2233.       2216.       2196.       2181.       2177.       2166.       2147.       2137.       2131.       2120.    
        2115.       2111.       2103.       2097.       2096.       2086.       2072.       2071.       2075.       2084.    
        2080.       2061.       2054.       2045.       2046.       2050.       2047.       2035.       2015.       2004.    
        1999.       1993.       1990.       1989.       1987.       1985.       1982.       1979.       1976.       1974.    
        1973.       1977.       1985.       1991.       1983.       1969.       1962.       1953.       1948.       1946.    
        1942.       1942.       1942.       1944.       1943.       1940.       0.000       0.000       0.000    
  40    0.000       0.000       0.000       0.000       0.000       0.000       2484.       2462.       2433.       2410.    
        2388.       2368.       2355.       2344.       2333.       2323.       2311.       2296.       2281.       2261.    
        2238.       2218.       2202.       2198.       2197.       2177.       2162.       2150.       2138.       2127.    
        2124.       2116.       2110.       2105.       2101.       2091.       2074.       2078.       2087.       2090.    
        2089.       2080.       2063.       2052.       2054.       2064.       2059.       2044.       2023.       2014.    
        2005.       2000.       2000.       1997.       1998.       1999.       1996.       1999.       1994.       1980.    
        1978.       1987.       2001.       2006.       2008.       2005.       1989.       1961.       1954.       1949.    
        1945.       1941.       1938.       1936.       1934.       1933.       0.000       0.000       0.000    
  41    0.000       0.000       0.000       0.000       0.000       2518.       2502.       2467.       2443.       2418.    
        2393.       2373.       2357.       2346.       2340.       2332.       2322.       2309.       2283.       2264.    
        2248.       2228.       2215.       2211.       2207.       2194.       2173.       2159.       2142.       2138.    
        2129.       2121.       2114.       2109.       2104.       2093.       2080.       2090.       2099.       2100.    
        2096.       2090.       2075.       2062.       2060.       2076.       2071.       2054.       2039.       2022.    
        2016.       2012.       2014.       2013.       2012.       2019.       2012.       2017.       2002.       1989.    
        1985.       1996.       2007.       2014.       2017.       2017.       2002.       1975.       1962.       1954.    
        1962.       1962.       1962.       1962.       1962.       0.000       0.000       0.000       0.000    
  42    0.000       0.000       0.000       0.000       0.000       2535.       2523.       2491.       2463.       2432.    
        2399.       2378.       2366.       2356.       2357.       2352.       2345.       2325.       2294.       2272.    
        2254.       2240.       2222.       2208.       2200.       2188.       2170.       2159.       2152.       2143.    
        2133.       2123.       2119.       2114.       2107.       2094.       2090.       2106.       2111.       2108.    
        2105.       2096.       2083.       2075.       2070.       2072.       2082.       2076.       2063.       2035.    
        2031.       2029.       2032.       2034.       2034.       2034.       2030.       2020.       2005.       1995.    
        1993.       2004.       2015.       2021.       2023.       2017.       2003.       1982.       1967.       1962.    
        1947.       1945.       1941.       1940.       1962.       0.000       0.000       0.000       0.000    
  43    0.000       0.000       0.000       0.000       0.000       2551.       2539.       2500.       2469.       2438.    
        2408.       2387.       2382.       2379.       2375.       2369.       2363.       2343.       2316.       2282.    
        2264.       2249.       2231.       2222.       2207.       2196.       2187.       2178.       2163.       2147.    
        2137.       2132.       2125.       2118.       2110.       2096.       2099.       2115.       2120.       2116.    
        2115.       2114.       2094.       2083.       2078.       2080.       2091.       2091.       2082.       2060.    
        2057.       2053.       2055.       2056.       2053.       2046.       2036.       2022.       2013.       2000.    
        1999.       2009.       2020.       2028.       2028.       2020.       1995.       1987.       1971.       1962.    
        1946.       1943.       1942.       1951.       1962.       0.000       0.000       0.000       0.000    
  44    0.000       0.000       0.000       0.000       0.000       2554.       2536.       2503.       2467.       2435.    
        2411.       2398.       2390.       2383.       2374.       2368.       2363.       2356.       2333.       2306.    
        2278.       2250.       2254.       2242.       2227.       2213.       2200.       2189.       2172.       2152.    
        2144.       2139.       2130.       2122.       2111.       2099.       2106.       2125.       2133.       2127.    
        2121.       2122.       2121.       2105.       2090.       2091.       2102.       2102.       2095.       2090.    
        2085.       2080.       2079.       2077.       2068.       2060.       2045.       2023.       2017.       2007.    
        2006.       2011.       2021.       2031.       2031.       2021.       1990.       1957.       1956.       1952.    
        1945.       1943.       1942.       1954.       1961.       0.000       0.000       0.000       0.000    
  45    0.000       0.000       0.000       2555.       2547.       2546.       2529.       2499.       2455.       2429.    
        2407.       2393.       2382.       2370.       2354.       2346.       2345.       2340.       2330.       2308.    
        2274.       2280.       2267.       2251.       2238.       2224.       2207.       2192.       2176.       2158.    
        2150.       2142.       2135.       2126.       2113.       2102.       2115.       2136.       2148.       2142.    
        2131.       2122.       2119.       2114.       2103.       2099.       2112.       2112.       2113.       2114.    
        2111.       2107.       2107.       2101.       2084.       2071.       2050.       2031.       2023.       2016.    
        2010.       2013.       2021.       2029.       2029.       2020.       2010.       1980.       1952.       1951.    
        1948.       1944.       1945.       1947.       1979.       0.000       0.000       0.000       0.000    
  46    0.000       0.000       0.000       2556.       2540.       2533.       2520.       2484.       2447.       2421.    
        2397.       2380.       2366.       2352.       2341.       2336.       2329.       2321.       2306.       2306.    
        2309.       2298.       2278.       2267.       2252.       2231.       2209.       2194.       2181.       2167.    
        2154.       2145.       2137.       2125.       2114.       2106.       2119.       2139.       2153.       2148.    
        2139.       2128.       2120.       2113.       2105.       2103.       2114.       2120.       2127.       2132.    
        2134.       2138.       2134.       2120.       2105.       2082.       2058.       2038.       2031.       2026.    
        2017.       2022.       2025.       2032.       2029.       2017.       2008.       1980.       1954.       1953.    
        1952.       1948.       1949.       1968.       1992.       0.000       0.000       0.000       0.000    
  47    0.000       0.000       0.000       2557.       2539.       2526.       2506.       2476.       2440.       2411.    
        2389.       2366.       2356.       2349.       2340.       2335.       2334.       2332.       2329.       2328.    
        2320.       2308.       2293.       2277.       2258.       2233.       2213.       2201.       2189.       2176.    
        2161.       2148.       2139.       2130.       2121.       2109.       2115.       2131.       2143.       2143.    
        2139.       2136.       2126.       2115.       2106.       2105.       2113.       2122.       2133.       2143.    
        2152.       2160.       2155.       2139.       2119.       2095.       2065.       2047.       2035.       2027.    
        2024.       2029.       2032.       2034.       2029.       2016.       2007.       1980.       1955.       1954.    
        1953.       1950.       1951.       1970.       1994.       0.000       0.000       0.000       0.000    
  48    0.000       0.000       0.000       2562.       2545.       2524.       2495.       2465.       2430.       2406.    
        2377.       2362.       2356.       2350.       2347.       2344.       2350.       2354.       2353.       2351.    
        2333.       2315.       2297.       2278.       2257.       2235.       2217.       2208.       2198.       2185.    
        2169.       2156.       2145.       2139.       2139.       2134.       2118.       2121.       2131.       2137.    
        2140.       2144.       2141.       2130.       2117.       2107.       2111.       2127.       2140.       2153.    
        2169.       2177.       2168.       2156.       2139.       2111.       2080.       2058.       2040.       2031.    
        2034.       2037.       2040.       2037.       2026.       2018.       2009.       1990.       1975.       1956.    
        1954.       1952.       1953.       1980.       1999.       2011.       0.000       0.000       0.000    
  49    0.000       0.000       0.000       2564.       2548.       2527.       2485.       2455.       2426.       2403.    
        2381.       2365.       2364.       2361.       2356.       2361.       2365.       2368.       2370.       2353.    
        2331.       2313.       2296.       2275.       2260.       2241.       2230.       2215.       2203.       2189.    
        2175.       2165.       2153.       2150.       2149.       2148.       2134.       2121.       2125.       2133.    
        2143.       2150.       2153.       2148.       2135.       2117.       2109.       2123.       2139.       2161.    
        2181.       2197.       2188.       2171.       2153.       2126.       2096.       2070.       2052.       2040.    
        2042.       2046.       2048.       2045.       2030.       2021.       2014.       2007.       1999.       1981.    
        1957.       1956.       1957.       1984.       2005.       2013.       0.000       0.000       0.000    
  50    0.000       0.000       0.000       2572.       2555.       2519.       2482.       2451.       2416.       2401.    
        2392.       2375.       2379.       2377.       2377.       2382.       2381.       2373.       2358.       2340.    
        2323.       2307.       2292.       2274.       2261.       2248.       2237.       2226.       2211.       2195.    
        2180.       2171.       2162.       2157.       2154.       2150.       2138.       2127.       2125.       2134.    
        2145.       2154.       2161.       2162.       2156.       2132.       2117.       2118.       2133.       2158.    
        2186.       2206.       2206.       2190.       2167.       2144.       2112.       2088.       2068.       2053.    
        2048.       2054.       2062.       2059.       2042.       2028.       2019.       2012.       2005.       2001.    
        1985.       1975.       1985.       1990.       2012.       2019.       0.000       0.000       0.000    
  51    0.000       0.000       0.000       2572.       2548.       2507.       2477.       2445.       2408.       2397.    
        2387.       2392.       2403.       2401.       2406.       2406.       2390.       2363.       2344.       2330.    
        2318.       2307.       2294.       2281.       2272.       2256.       2240.       2228.       2217.       2201.    
        2187.       2176.       2167.       2161.       2155.       2149.       2137.       2129.       2128.       2134.    
        2145.       2156.       2164.       2169.       2168.       2150.       2125.       2117.       2122.       2149.    
        2179.       2205.       2222.       2207.       2181.       2156.       2128.       2102.       2081.       2071.    
        2057.       2061.       2070.       2073.       2060.       2039.       2024.       2018.       2012.       2014.    
        2009.       1998.       2005.       2014.       2020.       2026.       0.000       0.000       0.000    
  52    0.000       0.000       2578.       2565.       2536.       2495.       2465.       2438.       2411.       2397.    
        2403.       2411.       2420.       2426.       2428.       2422.       2408.       2382.       2364.       2343.    
        2325.       2313.       2303.       2290.       2279.       2264.       2245.       2230.       2217.       2206.    
        2194.       2180.       2170.       2162.       2154.       2146.       2137.       2129.       2130.       2134.    
        2144.       2155.       2166.       2172.       2177.       2169.       2146.       2125.       2121.       2136.    
        2169.       2201.       2221.       2218.       2198.       2171.       2138.       2114.       2094.       2081.    
        2071.       2072.       2077.       2079.       2074.       2053.       2034.       2026.       2027.       2027.    
        2023.       2008.       2010.       2024.       2031.       2037.       0.000       0.000       0.000    
  53    0.000       0.000       2584.       2564.       2526.       2491.       2462.       2429.       2415.       2409.    
        2419.       2426.       2438.       2444.       2445.       2442.       2432.       2412.       2384.       2363.    
        2344.       2325.       2313.       2302.       2293.       2277.       2255.       2236.       2218.       2205.    
        2194.       2183.       2172.       2163.       2154.       2145.       2139.       2132.       2132.       2138.    
        2148.       2162.       2172.       2183.       2189.       2188.       2167.       2141.       2134.       2136.    
        2164.       2193.       2219.       2225.       2206.       2177.       2150.       2124.       2103.       2090.    
        2085.       2083.       2083.       2083.       2076.       2059.       2043.       2036.       2037.       2039.    
        2036.       2025.       2017.       2033.       2050.       2053.       2062.       0.000       0.000    
  54    0.000       0.000       2587.       2556.       2513.       2486.       2469.       2452.       2429.       2429.    
        2433.       2440.       2452.       2457.       2459.       2465.       2460.       2433.       2409.       2388.    
        2361.       2341.       2327.       2315.       2306.       2289.       2265.       2245.       2225.       2206.    
        2192.       2183.       2171.       2162.       2153.       2145.       2141.       2135.       2137.       2147.    
        2161.       2173.       2190.       2202.       2213.       2213.       2188.       2161.       2152.       2144.    
        2159.       2190.       2216.       2228.       2215.       2184.       2159.       2137.       2114.       2100.    
        2095.       2096.       2093.       2090.       2086.       2068.       2053.       2046.       2050.       2053.    
        2054.       2042.       2029.       2037.       2053.       2061.       2066.       0.000       0.000    
  55    0.000       2614.       2586.       2557.       2533.       2508.       2483.       2465.       2441.       2447.    
        2445.       2456.       2464.       2469.       2473.       2479.       2481.       2453.       2428.       2407.    
        2380.       2357.       2339.       2325.       2313.       2297.       2275.       2254.       2232.       2209.    
        2194.       2182.       2171.       2161.       2153.       2146.       2143.       2138.       2144.       2157.    
        2172.       2189.       2207.       2223.       2235.       2236.       2205.       2180.       2166.       2159.    
        2165.       2187.       2212.       2232.       2225.       2194.       2169.       2153.       2134.       2112.    
        2108.       2106.       2104.       2098.       2091.       2078.       2067.       2058.       2062.       2067.    
        2068.       2066.       2041.       2048.       2058.       2065.       2072.       0.000       0.000    
  56    0.000       2609.       2575.       2545.       2535.       2525.       2504.       2475.       2466.       2456.    
        2453.       2469.       2478.       2479.       2484.       2492.       2493.       2471.       2450.       2428.    
        2405.       2378.       2354.       2337.       2320.       2306.       2285.       2263.       2238.       2212.    
        2199.       2186.       2172.       2161.       2155.       2150.       2146.       2143.       2150.       2164.    
        2182.       2201.       2222.       2239.       2254.       2254.       2219.       2198.       2182.       2175.    
        2170.       2183.       2211.       2234.       2232.       2202.       2182.       2164.       2146.       2128.    
        2118.       2119.       2118.       2108.       2096.       2086.       2076.       2070.       2072.       2080.    
        2085.       2080.       2052.       2057.       2069.       2075.       2076.       0.000       0.000    
  57    2638.       2599.       2549.       2535.       2537.       2532.       2507.       2508.       2481.       2467.    
        2482.       2493.       2494.       2492.       2498.       2505.       2506.       2491.       2474.       2450.    
        2423.       2401.       2369.       2350.       2330.       2313.       2295.       2273.       2243.       2221.    
        2203.       2187.       2174.       2163.       2156.       2151.       2147.       2148.       2155.       2167.    
        2182.       2202.       2226.       2241.       2256.       2263.       2242.       2214.       2198.       2189.    
        2181.       2189.       2211.       2238.       2245.       2215.       2195.       2177.       2161.       2146.    
        2132.       2137.       2135.       2122.       2106.       2096.       2088.       2080.       2081.       2088.    
        2095.       2090.       2063.       2070.       2075.       2079.       2081.       0.000       0.000    
  58    2641.       2597.       2553.       2535.       2530.       2530.       2530.       2526.       2492.       2494.    
        2504.       2513.       2514.       2505.       2510.       2516.       2520.       2507.       2485.       2461.    
        2435.       2413.       2389.       2363.       2343.       2323.       2305.       2280.       2252.       2227.    
        2210.       2192.       2178.       2167.       2158.       2153.       2150.       2150.       2156.       2165.    
        2178.       2197.       2216.       2233.       2254.       2266.       2271.       2237.       2218.       2206.    
        2198.       2198.       2215.       2242.       2254.       2230.       2210.       2193.       2177.       2160.    
        2149.       2153.       2150.       2138.       2122.       2109.       2099.       2093.       2093.       2098.    
        2095.       2087.       2074.       2081.       2083.       2084.       2086.       0.000       0.000    
  59    2648.       2611.       2564.       2542.       2531.       2530.       2548.       2546.       2534.       2520.    
        2526.       2533.       2530.       2524.       2524.       2526.       2534.       2519.       2496.       2472.    
        2442.       2422.       2400.       2373.       2352.       2333.       2311.       2285.       2257.       2235.    
        2214.       2198.       2181.       2170.       2160.       2155.       2151.       2152.       2158.       2165.    
        2178.       2195.       2215.       2233.       2252.       2270.       2277.       2263.       2236.       2224.    
        2215.       2212.       2219.       2246.       2260.       2245.       2225.       2211.       2196.       2179.    
        2166.       2170.       2164.       2152.       2136.       2119.       2113.       2105.       2107.       2106.    
        2096.       2087.       2085.       2089.       2088.       2090.       2096.       2103.       0.000    
  60    0.000       2632.       2600.       2575.       2565.       2550.       2575.       2578.       2573.       2560.    
        2560.       2553.       2541.       0.000       0.000       0.000       2543.       2529.       2506.       2479.    
        2453.       2428.       2404.       2388.       2372.       2346.       2319.       2290.       2267.       2242.    
        2217.       2203.       2187.       2173.       2164.       2157.       2153.       2154.       2158.       2166.    
        2177.       2196.       2215.       2232.       2255.       2278.       2288.       2280.       2259.       2238.    
        2229.       2226.       2225.       2245.       2262.       2256.       2241.       2228.       2211.       2198.    
        2188.       2194.       2188.       2170.       2152.       2135.       2128.       2122.       2120.       2111.    
        2098.       2091.       2093.       2096.       2095.       2099.       2107.       2112.       2115.    
  61    0.000       0.000       2629.       2621.       2602.       2599.       2598.       2594.       2603.       2605.    
        2588.       0.000       0.000       0.000       0.000       0.000       0.000       2536.       2509.       2484.    
        2458.       2430.       2408.       2390.       2382.       2350.       2323.       2297.       2273.       2245.    
        2225.       2211.       2190.       2177.       2168.       2159.       2156.       2155.       2159.       2166.    
        2178.       2194.       2214.       2234.       2256.       2282.       2303.       2299.       2276.       2256.    
        2241.       2235.       2236.       2244.       2262.       2266.       2258.       2245.       2228.       2215.    
        2205.       2211.       2211.       2189.       2170.       2154.       2142.       2133.       2127.       2112.    
        2103.       2097.       2101.       2103.       2103.       2110.       2116.       2119.       2122.    
  62    0.000       0.000       0.000       2626.       0.000       0.000       0.000       0.000       0.000       0.000    
        0.000       0.000       0.000       0.000       0.000       0.000       0.000       0.000       0.000       2487.    
        2461.       2433.       2407.       2392.       2377.       2349.       2328.       2303.       2276.       2251.    
        2230.       2213.       2195.       2181.       2171.       2163.       2159.       2157.       2159.       2167.    
        2178.       2193.       2214.       2232.       2253.       2280.       2306.       2313.       2301.       2273.    
        2257.       2247.       2246.       2248.       2260.       2274.       2274.       2263.       2249.       2235.    
        2219.       2229.       2226.       2210.       2189.       2172.       2158.       2142.       2127.       2116.    
        2107.       2106.       2109.       2108.       2112.       2117.       2123.       2127.       2130.    
  63    0.000       0.000       0.000       0.000       0.000       0.000       0.000       0.000       0.000       0.000    
        0.000       0.000       0.000       0.000       0.000       0.000       0.000       0.000       0.000       2489.    
        2464.       2429.       2407.       2391.       2377.       2352.       2331.       2307.       2283.       2253.    
        2233.       2218.       2203.       2184.       2173.       2166.       2162.       2159.       2162.       2168.    
        2177.       2192.       2211.       2229.       2252.       2272.       2298.       2321.       2318.       2298.    
        2271.       2261.       2256.       2255.       2265.       2278.       2289.       2283.       2272.       2264.    
        2252.       2250.       2247.       2229.       2211.       2187.       2167.       2151.       2135.       2120.    
        2112.       2113.       2114.       2115.       2118.       2124.       2129.       2134.       2138.    
  64    0.000       0.000       0.000       0.000       0.000       0.000       0.000       0.000       0.000       0.000    
        0.000       0.000       0.000       0.000       0.000       0.000       0.000       0.000       0.000       0.000    
        0.000       0.000       0.000       0.000       2379.       2359.       2337.       2314.       2291.       2259.    
        2240.       2221.       2208.       2193.       2176.       2168.       2164.       2162.       2163.       2167.    
        2177.       2189.       2208.       2226.       2247.       2270.       2294.       2316.       2328.       2320.    
        2297.       2281.       2276.       2268.       2270.       2281.       2294.       2302.       2298.       2287.    
        2278.       2274.       2265.       2251.       2230.       2201.       2173.       2155.       2139.       2125.    
        2119.       2119.       2120.       2120.       2123.       2128.       2135.       2142.       2147.    
  65    0.000       0.000       0.000       0.000       0.000       0.000       0.000       0.000       0.000       0.000    
        0.000       0.000       0.000       0.000       0.000       0.000       0.000       0.000       0.000       0.000    
        0.000       0.000       0.000       0.000       0.000       0.000       0.000       0.000       0.000       0.000    
        0.000       0.000       0.000       2197.       2184.       2171.       2166.       2164.       2164.       2168.    
        2175.       2188.       2203.       2220.       2242.       0.000       0.000       0.000       0.000       2331.    
        2320.       2310.       2305.       2289.       2277.       2282.       2295.       2310.       2316.       2308.    
        2301.       2292.       2278.       2262.       2240.       2211.       2181.       2157.       2144.       2131.    
        2128.       2126.       2127.       2127.       2127.       2133.       2139.       2146.       2151.    
  66    0.000       0.000       0.000       0.000       0.000       0.000       0.000       0.000       0.000       0.000    
        0.000       0.000       0.000       0.000       0.000       0.000       0.000       0.000       0.000       0.000    
        0.000       0.000       0.000       0.000       0.000       0.000       0.000       0.000       0.000       0.000    
        0.000       0.000       0.000       0.000       0.000       2176.       2170.       0.000       0.000       0.000    
        0.000       0.000       0.000       0.000       0.000       0.000       0.000       0.000       0.000       0.000    
        2328.       2325.       2324.       2307.       2292.       2288.       2298.       2315.       2329.       2326.    
        2318.       2304.       2289.       2268.       2246.       2215.       2184.       2163.       2151.       2143.    
        2141.       2136.       2135.       2132.       2130.       2134.       2141.       2147.       2155.    
  67    0.000       0.000       0.000       0.000       0.000       0.000       0.000       0.000       0.000       0.000    
        0.000       0.000       0.000       0.000       0.000       0.000       0.000       0.000       0.000       0.000    
        0.000       0.000       0.000       0.000       0.000       0.000       0.000       0.000       0.000       0.000    
        0.000       0.000       0.000       0.000       0.000       0.000       0.000       0.000       0.000       0.000    
        0.000       0.000       0.000       0.000       0.000       0.000       0.000       0.000       0.000       0.000    
        0.000       0.000       2332.       2322.       2304.       2296.       2301.       2315.       2334.       2339.    
        2330.       2317.       2292.       2272.       2250.       2220.       2193.       2168.       2159.       2154.    
        2146.       0.000       0.000       0.000       0.000       0.000       0.000       0.000       0.000    
  68    0.000       0.000       0.000       0.000       0.000       0.000       0.000       0.000       0.000       0.000    
        0.000       0.000       0.000       0.000       0.000       0.000       0.000       0.000       0.000       0.000    
        0.000       0.000       0.000       0.000       0.000       0.000       0.000       0.000       0.000       0.000    
        0.000       0.000       0.000       0.000       0.000       0.000       0.000       0.000       0.000       0.000    
        0.000       0.000       0.000       0.000       0.000       0.000       0.000       0.000       0.000       0.000    
        0.000       0.000       0.000       2330.       2314.       2304.       2301.       2311.       2327.       2347.    
        2336.       2322.       2300.       2278.       2256.       2226.       2200.       2179.       0.000       0.000    
        0.000       0.000       0.000       0.000       0.000       0.000       0.000       0.000       0.000    
  69    0.000       0.000       0.000       0.000       0.000       0.000       0.000       0.000       0.000       0.000    
        0.000       0.000       0.000       0.000       0.000       0.000       0.000       0.000       0.000       0.000    
        0.000       0.000       0.000       0.000       0.000       0.000       0.000       0.000       0.000       0.000    
        0.000       0.000       0.000       0.000       0.000       0.000       0.000       0.000       0.000       0.000    
        0.000       0.000       0.000       0.000       0.000       0.000       0.000       0.000       0.000       0.000    
        0.000       0.000       0.000       0.000       0.000       0.000       0.000       0.000       0.000       0.000    
        2349.       2331.       2310.       2288.       2265.       2237.       2212.       0.000       0.000       0.000    
        0.000       0.000       0.000       0.000       0.000       0.000       0.000       0.000       0.000    
  70    0.000       0.000       0.000       0.000       0.000       0.000       0.000       0.000       0.000       0.000    
        0.000       0.000       0.000       0.000       0.000       0.000       0.000       0.000       0.000       0.000    
        0.000       0.000       0.000       0.000       0.000       0.000       0.000       0.000       0.000       0.000    
        0.000       0.000       0.000       0.000       0.000       0.000       0.000       0.000       0.000       0.000    
        0.000       0.000       0.000       0.000       0.000       0.000       0.000       0.000       0.000       0.000    
        0.000       0.000       0.000       0.000       0.000       0.000       0.000       0.000       0.000       0.000    
        0.000       2345.       2324.       2300.       2278.       2247.       0.000       0.000       0.000       0.000    
        0.000       0.000       0.000       0.000       0.000       0.000       0.000       0.000       0.000    
  71    0.000       0.000       0.000       0.000       0.000       0.000       0.000       0.000       0.000       0.000    
        0.000       0.000       0.000       0.000       0.000       0.000       0.000       0.000       0.000       0.000    
        0.000       0.000       0.000       0.000       0.000       0.000       0.000       0.000       0.000       0.000    
        0.000       0.000       0.000       0.000       0.000       0.000       0.000       0.000       0.000       0.000    
        0.000       0.000       0.000       0.000       0.000       0.000       0.000       0.000       0.000       0.000    
        0.000       0.000       0.000       0.000       0.000       0.000       0.000       0.000       0.000       0.000    
        0.000       0.000       2339.       2313.       0.000       0.000       0.000       0.000       0.000       0.000    
        0.000       0.000       0.000       0.000       0.000       0.000       0.000       0.000       0.000    



             MODEL LAYER BOTTOM EL. FOR LAYER   2
 READING ON UNIT   11 WITH FORMAT: (FREE)              

            1           2           3           4           5           6           7           8           9          10
           11          12          13          14          15          16          17          18          19          20
           21          22          23          24          25          26          27          28          29          30
           31          32          33          34          35          36          37          38          39          40
           41          42          43          44          45          46          47          48          49          50
           51          52          53          54          55          56          57          58          59          60
           61          62          63          64          65          66          67          68          69          70
           71          72          73          74          75          76          77          78          79
 ........................................................................................................................
   1    0.000       0.000       0.000       0.000       0.000       0.000       0.000       0.000       0.000       0.000    
        0.000       0.000       0.000       0.000       0.000       0.000       0.000       0.000       0.000       0.000    
        0.000       0.000       0.000       0.000       0.000       0.000       0.000       0.000       0.000       0.000    
        0.000       0.000       0.000       0.000       0.000       0.000       0.000       0.000       0.000       0.000    
        0.000       0.000       0.000       0.000       0.000       0.000       0.000       0.000       0.000       0.000    
        0.000       2103.       2093.       0.000       0.000       0.000       0.000       0.000       0.000       0.000    
        0.000       0.000       0.000       0.000       0.000       0.000       0.000       0.000       0.000       0.000    
        0.000       0.000       0.000       0.000       0.000       0.000       0.000       0.000       0.000    
   2    0.000       0.000       0.000       0.000       0.000       0.000       0.000       0.000       0.000       0.000    
        0.000       0.000       0.000       0.000       0.000       0.000       0.000       0.000       0.000       0.000    
        0.000       0.000       0.000       0.000       0.000       0.000       0.000       0.000       0.000       0.000    
        0.000       0.000       0.000       0.000       0.000       0.000       0.000       0.000       0.000       0.000    
        0.000       0.000       0.000       0.000       0.000       0.000       0.000       0.000       0.000       0.000    
        0.000       2101.       2087.       2062.       0.000       0.000       0.000       0.000       0.000       0.000    
        0.000       0.000       0.000       0.000       0.000       0.000       0.000       0.000       0.000       0.000    
        0.000       0.000       0.000       0.000       0.000       0.000       0.000       0.000       0.000    
   3    0.000       0.000       0.000       0.000       0.000       0.000       0.000       0.000       0.000       0.000    
        0.000       0.000       0.000       0.000       0.000       0.000       0.000       0.000       0.000       0.000    
        0.000       0.000       0.000       0.000       0.000       0.000       0.000       0.000       0.000       0.000    
        0.000       0.000       0.000       0.000       0.000       0.000       0.000       0.000       0.000       0.000    
        0.000       0.000       0.000       0.000       0.000       0.000       0.000       0.000       0.000       0.000    
        0.000       2094.       2079.       2052.       0.000       0.000       0.000       0.000       0.000       0.000    
        0.000       0.000       0.000       0.000       0.000       0.000       0.000       0.000       0.000       0.000    
        0.000       0.000       0.000       0.000       0.000       0.000       0.000       0.000       0.000    
   4    0.000       0.000       0.000       0.000       0.000       0.000       0.000       0.000       0.000       0.000    
        0.000       0.000       0.000       0.000       0.000       0.000       0.000       0.000       0.000       0.000    
        0.000       0.000       0.000       0.000       0.000       0.000       0.000       0.000       0.000       0.000    
        0.000       0.000       0.000       0.000       0.000       0.000       0.000       0.000       0.000       0.000    
        0.000       0.000       0.000       0.000       0.000       0.000       0.000       0.000       0.000       0.000    
        0.000       2087.       2068.       2051.       2050.       0.000       0.000       0.000       0.000       0.000    
        0.000       0.000       0.000       0.000       0.000       0.000       0.000       0.000       0.000       0.000    
        0.000       0.000       0.000       0.000       0.000       0.000       0.000       0.000       0.000    
   5    0.000       0.000       0.000       0.000       0.000       0.000       0.000       0.000       0.000       0.000    
        0.000       0.000       0.000       0.000       0.000       0.000       0.000       0.000       0.000       0.000    
        0.000       0.000       0.000       0.000       0.000       0.000       0.000       0.000       0.000       0.000    
        0.000       0.000       0.000       0.000       0.000       0.000       0.000       0.000       0.000       0.000    
        0.000       0.000       0.000       0.000       0.000       0.000       0.000       0.000       0.000       0.000    
        0.000       2081.       2061.       2050.       2048.       2048.       2046.       0.000       0.000       0.000    
        0.000       0.000       0.000       0.000       0.000       0.000       0.000       0.000       0.000       0.000    
        0.000       0.000       0.000       0.000       0.000       0.000       0.000       0.000       0.000    
   6    0.000       0.000       0.000       0.000       0.000       0.000       0.000       0.000       0.000       0.000    
        0.000       0.000       0.000       0.000       0.000       0.000       0.000       0.000       0.000       0.000    
        0.000       0.000       0.000       0.000       0.000       0.000       0.000       0.000       0.000       0.000    
        0.000       0.000       0.000       0.000       0.000       0.000       0.000       0.000       0.000       0.000    
        0.000       0.000       0.000       0.000       0.000       0.000       0.000       0.000       0.000       0.000    
        0.000       2079.       2062.       2051.       2049.       2046.       2044.       2046.       2050.       0.000    
        0.000       0.000       0.000       2052.       2054.       0.000       0.000       0.000       0.000       0.000    
        0.000       0.000       0.000       0.000       0.000       0.000       0.000       0.000       0.000    
   7    0.000       0.000       0.000       0.000       0.000       0.000       0.000       0.000       0.000       0.000    
        0.000       0.000       0.000       0.000       0.000       0.000       0.000       0.000       0.000       0.000    
        0.000       0.000       0.000       0.000       0.000       0.000       0.000       0.000       0.000       0.000    
        0.000       0.000       0.000       0.000       0.000       0.000       0.000       0.000       0.000       0.000    
        0.000       0.000       0.000       0.000       0.000       0.000       0.000       0.000       0.000       0.000    
        0.000       2081.       2066.       2062.       2050.       2043.       2041.       2044.       2049.       2052.    
        2056.       2054.       2051.       2049.       2052.       2053.       0.000       0.000       0.000       0.000    
        0.000       0.000       0.000       0.000       0.000       0.000       0.000       0.000       0.000    
   8    0.000       0.000       0.000       0.000       0.000       0.000       0.000       0.000       0.000       0.000    
        0.000       0.000       0.000       0.000       0.000       0.000       0.000       0.000       0.000       0.000    
        0.000       0.000       0.000       0.000       0.000       0.000       0.000       0.000       0.000       0.000    
        0.000       0.000       0.000       0.000       0.000       0.000       0.000       0.000       0.000       0.000    
        0.000       0.000       0.000       0.000       0.000       0.000       0.000       0.000       0.000       0.000    
        0.000       2088.       2076.       2066.       2050.       2039.       2039.       2041.       2047.       2053.    
        2056.       2055.       2052.       2047.       2046.       2047.       2047.       2048.       0.000       0.000    
        0.000       0.000       0.000       0.000       0.000       0.000       0.000       0.000       0.000    
   9    0.000       0.000       0.000       0.000       0.000       0.000       0.000       0.000       0.000       0.000    
        0.000       0.000       0.000       0.000       0.000       0.000       0.000       0.000       0.000       0.000    
        0.000       0.000       0.000       0.000       0.000       0.000       0.000       0.000       0.000       0.000    
        0.000       0.000       0.000       0.000       0.000       0.000       0.000       0.000       0.000       0.000    
        0.000       0.000       0.000       0.000       0.000       0.000       0.000       0.000       0.000       0.000    
        2090.       2082.       2071.       2062.       2051.       2040.       2036.       2038.       2040.       2049.    
        2055.       2055.       2052.       2046.       2040.       2038.       2041.       2046.       2050.       0.000    
        0.000       0.000       0.000       0.000       0.000       0.000       0.000       0.000       0.000    
  10    0.000       0.000       0.000       0.000       0.000       0.000       0.000       0.000       0.000       0.000    
        0.000       0.000       0.000       0.000       0.000       0.000       0.000       0.000       0.000       0.000    
        0.000       0.000       0.000       0.000       0.000       0.000       0.000       0.000       0.000       0.000    
        0.000       0.000       0.000       0.000       0.000       0.000       0.000       0.000       0.000       0.000    
        0.000       0.000       0.000       0.000       0.000       0.000       0.000       0.000       0.000       2081.    
        2084.       2077.       2070.       2060.       2047.       2041.       2036.       2037.       2038.       2045.    
        2050.       2051.       2049.       2046.       2041.       2029.       2036.       2045.       2052.       2057.    
        0.000       0.000       0.000       0.000       0.000       0.000       0.000       0.000       0.000    
  11    0.000       0.000       0.000       0.000       0.000       0.000       0.000       0.000       0.000       0.000    
        0.000       0.000       0.000       0.000       0.000       0.000       0.000       0.000       0.000       0.000    
        0.000       0.000       0.000       0.000       0.000       0.000       0.000       0.000       0.000       0.000    
        0.000       0.000       0.000       0.000       0.000       0.000       0.000       0.000       0.000       0.000    
        0.000       0.000       0.000       0.000       0.000       0.000       0.000       0.000       2080.       2078.    
        2076.       2073.       2069.       2060.       2048.       2041.       2036.       2035.       2035.       2038.    
        2042.       2042.       2043.       2042.       2037.       2027.       2034.       2042.       2049.       2055.    
        2060.       0.000       0.000       0.000       0.000       0.000       0.000       0.000       0.000    
  12    0.000       0.000       0.000       0.000       0.000       0.000       0.000       0.000       0.000       0.000    
        0.000       0.000       0.000       0.000       0.000       0.000       0.000       0.000       0.000       0.000    
        0.000       0.000       0.000       0.000       0.000       0.000       0.000       0.000       0.000       0.000    
        0.000       0.000       0.000       0.000       0.000       0.000       0.000       0.000       0.000       0.000    
        0.000       2117.       2111.       0.000       0.000       0.000       0.000       2086.       2082.       2076.    
        2073.       2067.       2066.       2065.       2051.       2042.       2038.       2033.       2031.       2032.    
        2034.       2036.       2037.       2036.       2031.       2024.       2027.       2035.       2042.       2053.    
        2058.       0.000       0.000       0.000       0.000       0.000       0.000       0.000       0.000    
  13    0.000       0.000       0.000       0.000       0.000       0.000       0.000       0.000       0.000       0.000    
        0.000       0.000       0.000       0.000       0.000       0.000       0.000       0.000       0.000       0.000    
        0.000       0.000       0.000       0.000       0.000       0.000       0.000       0.000       0.000       0.000    
        0.000       0.000       0.000       0.000       0.000       0.000       0.000       0.000       2118.       2115.    
        2114.       2112.       2101.       2097.       2095.       2094.       2091.       2087.       2080.       2074.    
        2069.       2064.       2061.       2058.       2052.       2044.       2038.       2032.       2028.       2026.    
        2027.       2028.       2033.       2031.       2026.       2018.       2019.       2026.       2038.       2051.    
        2053.       2054.       0.000       0.000       0.000       0.000       0.000       0.000       0.000    
  14    0.000       0.000       0.000       0.000       0.000       0.000       0.000       0.000       0.000       0.000    
        0.000       0.000       0.000       0.000       0.000       0.000       0.000       0.000       0.000       0.000    
        0.000       0.000       0.000       0.000       0.000       0.000       0.000       0.000       0.000       0.000    
        0.000       0.000       0.000       0.000       0.000       0.000       0.000       0.000       2118.       2108.    
        2102.       2098.       2088.       2087.       2087.       2091.       2090.       2085.       2078.       2072.    
        2067.       2062.       2058.       2054.       2050.       2046.       2040.       2034.       2028.       2022.    
        2022.       2024.       2027.       2027.       2019.       2011.       2010.       2017.       2028.       2043.    
        2046.       2048.       2048.       0.000       0.000       0.000       0.000       0.000       0.000    
  15    0.000       0.000       0.000       0.000       0.000       0.000       0.000       0.000       0.000       0.000    
        0.000       0.000       0.000       0.000       0.000       0.000       0.000       0.000       0.000       0.000    
        0.000       0.000       0.000       0.000       0.000       0.000       0.000       0.000       0.000       0.000    
        0.000       0.000       0.000       0.000       0.000       0.000       0.000       2127.       2116.       2108.    
        2100.       2083.       2075.       2073.       2073.       2080.       2082.       2081.       2076.       2070.    
        2064.       2059.       2054.       2050.       2046.       2043.       2041.       2036.       2030.       2021.    
        2017.       2020.       2022.       2020.       2017.       2008.       2003.       2008.       2015.       2027.    
        2035.       2040.       2044.       0.000       0.000       0.000       0.000       0.000       0.000    
  16    0.000       0.000       0.000       0.000       0.000       0.000       0.000       0.000       0.000       0.000    
        0.000       0.000       0.000       0.000       0.000       0.000       0.000       0.000       0.000       0.000    
        0.000       0.000       0.000       0.000       0.000       0.000       0.000       0.000       0.000       0.000    
        0.000       0.000       0.000       0.000       0.000       0.000       2137.       2125.       2116.       2105.    
        2094.       2085.       2080.       2076.       2065.       2066.       2067.       2070.       2069.       2066.    
        2062.       2055.       2050.       2045.       2041.       2039.       2037.       2035.       2031.       2027.    
        2013.       2016.       2019.       2018.       2016.       2008.       2000.       2000.       2002.       2014.    
        2022.       2032.       2039.       2040.       0.000       0.000       0.000       0.000       0.000    
  17    0.000       0.000       0.000       0.000       0.000       0.000       0.000       0.000       0.000       0.000    
        0.000       0.000       0.000       0.000       0.000       0.000       0.000       0.000       0.000       0.000    
        0.000       0.000       0.000       0.000       0.000       0.000       0.000       0.000       0.000       0.000    
        0.000       0.000       0.000       0.000       0.000       2138.       2132.       2116.       2109.       2100.    
        2088.       2085.       2082.       2078.       2065.       2054.       2052.       2052.       2059.       2059.    
        2055.       2049.       2043.       2040.       2038.       2036.       2035.       2033.       2030.       2027.    
        2013.       2012.       2017.       2015.       2008.       1997.       1995.       1992.       1993.       1999.    
        2007.       2023.       2031.       2033.       0.000       0.000       0.000       0.000       0.000    
  18    0.000       0.000       0.000       0.000       0.000       0.000       0.000       0.000       0.000       0.000    
        0.000       0.000       0.000       0.000       0.000       0.000       0.000       0.000       0.000       0.000    
        0.000       0.000       0.000       0.000       0.000       0.000       0.000       0.000       0.000       0.000    
        0.000       0.000       0.000       0.000       2144.       2137.       2124.       2112.       2104.       2097.    
        2088.       2085.       2080.       2076.       2063.       2056.       2047.       2035.       2045.       2050.    
        2047.       2041.       2038.       2034.       2032.       2032.       2032.       2031.       2029.       2023.    
        2016.       2003.       2008.       2005.       1997.       1990.       1990.       1987.       1987.       1987.    
        1996.       2011.       2021.       2026.       0.000       0.000       0.000       0.000       0.000    
  19    0.000       0.000       0.000       0.000       0.000       0.000       0.000       0.000       0.000       0.000    
        0.000       0.000       0.000       0.000       0.000       0.000       0.000       0.000       0.000       0.000    
        0.000       0.000       0.000       0.000       0.000       0.000       0.000       0.000       0.000       0.000    
        0.000       0.000       0.000       2150.       2140.       2140.       2125.       2114.       2111.       2102.    
        2093.       2087.       2081.       2077.       2069.       2063.       2047.       2022.       2029.       2038.    
        2039.       2033.       2032.       2029.       2027.       2028.       2030.       2030.       2028.       2019.    
        2011.       2001.       1993.       1993.       1990.       1985.       1987.       1987.       1987.       1987.    
        1988.       2000.       2014.       2026.       0.000       0.000       0.000       0.000       0.000    
  20    0.000       0.000       0.000       0.000       0.000       0.000       0.000       0.000       0.000       0.000    
        0.000       0.000       0.000       0.000       0.000       0.000       0.000       0.000       0.000       0.000    
        0.000       0.000       0.000       0.000       0.000       0.000       0.000       0.000       0.000       0.000    
        0.000       0.000       0.000       2150.       2157.       2158.       2140.       2129.       2117.       2109.    
        2102.       2089.       2079.       2076.       2068.       2062.       2043.       2017.       2019.       2025.    
        2029.       2025.       2025.       2023.       2023.       2024.       2028.       2027.       2022.       2014.    
        2007.       1999.       1990.       1984.       1985.       1983.       1986.       1989.       1990.       1992.    
        1990.       1997.       2013.       2040.       0.000       0.000       0.000       0.000       0.000    
  21    0.000       0.000       0.000       0.000       0.000       0.000       0.000       0.000       0.000       0.000    
        0.000       0.000       0.000       0.000       0.000       0.000       0.000       0.000       0.000       0.000    
        0.000       0.000       0.000       0.000       0.000       0.000       0.000       0.000       0.000       0.000    
        0.000       0.000       2169.       2169.       2173.       2160.       2140.       2124.       2109.       2098.    
        2088.       2078.       2069.       2061.       2054.       2046.       2030.       2007.       2004.       2011.    
        2017.       2015.       2015.       2015.       2018.       2021.       2025.       2022.       2015.       2010.    
        2005.       1997.       1990.       1981.       1981.       1982.       1991.       1995.       2003.       2003.    
        2000.       2000.       2012.       2027.       2037.       0.000       0.000       0.000       0.000    
  22    0.000       0.000       0.000       0.000       0.000       0.000       0.000       0.000       0.000       0.000    
        0.000       0.000       0.000       0.000       0.000       0.000       0.000       0.000       0.000       0.000    
        0.000       0.000       0.000       0.000       0.000       0.000       0.000       0.000       0.000       0.000    
        0.000       0.000       2178.       2175.       2162.       2145.       2129.       2113.       2101.       2092.    
        2081.       2068.       2056.       2044.       2030.       2022.       2005.       1995.       1990.       1998.    
        2007.       2007.       2006.       2010.       2015.       2018.       2021.       2017.       2011.       2005.    
        2001.       1996.       1991.       1981.       1978.       1981.       1988.       1995.       2000.       2005.    
        2010.       2007.       2007.       2017.       0.000       0.000       0.000       0.000       0.000    
  23    0.000       0.000       0.000       0.000       0.000       0.000       0.000       0.000       0.000       0.000    
        0.000       0.000       0.000       0.000       0.000       0.000       0.000       0.000       0.000       0.000    
        0.000       0.000       0.000       0.000       0.000       0.000       0.000       0.000       0.000       0.000    
        0.000       2187.       2173.       2160.       2146.       2131.       2115.       2103.       2090.       2080.    
        2074.       2066.       2053.       2041.       2022.       2003.       1992.       1985.       1979.       1990.    
        1997.       1997.       1999.       2004.       2012.       2015.       2019.       2018.       2009.       2001.    
        1999.       1995.       1991.       1980.       1975.       1977.       1983.       1992.       2000.       2007.    
        2016.       0.000       0.000       0.000       0.000       0.000       0.000       0.000       0.000    
  24    0.000       0.000       0.000       0.000       0.000       0.000       0.000       0.000       0.000       0.000    
        0.000       0.000       0.000       0.000       0.000       0.000       0.000       0.000       0.000       0.000    
        0.000       0.000       0.000       0.000       0.000       0.000       0.000       0.000       2183.       2188.    
        2181.       2170.       2156.       2142.       2129.       2112.       2099.       2086.       2075.       2066.    
        2059.       2049.       2041.       2035.       2023.       2005.       1989.       1977.       1970.       1980.    
        1984.       1984.       1989.       2003.       2007.       2011.       2015.       2016.       2007.       2001.    
        1996.       1995.       1992.       1978.       1975.       1975.       1977.       1986.       1997.       2007.    
        2017.       0.000       0.000       0.000       0.000       0.000       0.000       0.000       0.000    
  25    0.000       0.000       0.000       0.000       0.000       0.000       0.000       0.000       0.000       0.000    
        0.000       0.000       0.000       0.000       0.000       0.000       0.000       0.000       0.000       0.000    
        0.000       0.000       0.000       0.000       0.000       0.000       0.000       2195.       2170.       2159.    
        2159.       2148.       2137.       2126.       2111.       2098.       2085.       2069.       2056.       2049.    
        2043.       2036.       2027.       2022.       2017.       2007.       1988.       1975.       1965.       1968.    
        1972.       1973.       1979.       1994.       2001.       2004.       2008.       2011.       2005.       1995.    
        1992.       1992.       1992.       1987.       1979.       1979.       1975.       1978.       1989.       1998.    
        2009.       0.000       0.000       0.000       0.000       0.000       0.000       0.000       0.000    
  26    0.000       0.000       0.000       0.000       0.000       0.000       0.000       0.000       0.000       0.000    
        0.000       0.000       0.000       0.000       0.000       0.000       0.000       0.000       0.000       0.000    
        0.000       0.000       0.000       0.000       0.000       2204.       2189.       2167.       2142.       2133.    
        2132.       2126.       2117.       2107.       2094.       2081.       2065.       2049.       2038.       2033.    
        2028.       2018.       2013.       2009.       2007.       2002.       1991.       1972.       1963.       1956.    
        1957.       1962.       1970.       1983.       1994.       1998.       2001.       2004.       2000.       1991.    
        1987.       1989.       1988.       1988.       1987.       1980.       1979.       1972.       1979.       1988.    
        1995.       0.000       0.000       0.000       0.000       0.000       0.000       0.000       0.000    
  27    0.000       0.000       0.000       0.000       0.000       0.000       0.000       0.000       0.000       0.000    
        0.000       0.000       0.000       0.000       0.000       0.000       0.000       0.000       0.000       0.000    
        0.000       0.000       0.000       0.000       2203.       2182.       2165.       2147.       2123.       2105.    
        2109.       2106.       2100.       2089.       2077.       2060.       2042.       2031.       2025.       2018.    
        2010.       2004.       1998.       1998.       1997.       1996.       1988.       1976.       1967.       1956.    
        1949.       1953.       1961.       1973.       1988.       1992.       1994.       1995.       1991.       1986.    
        1982.       1982.       1983.       1987.       1987.       1984.       1982.       1971.       1973.       1978.    
        1982.       0.000       0.000       0.000       0.000       0.000       0.000       0.000       0.000    
  28    0.000       0.000       0.000       0.000       0.000       0.000       0.000       0.000       0.000       0.000    
        0.000       0.000       0.000       0.000       0.000       0.000       0.000       0.000       0.000       0.000    
        0.000       0.000       0.000       2203.       2180.       2159.       2143.       2128.       2109.       2096.    
        2093.       2092.       2084.       2072.       2059.       2043.       2027.       2018.       2010.       2002.    
        1994.       1990.       1986.       1987.       1988.       1988.       1984.       1978.       1969.       1958.    
        1944.       1947.       1953.       1966.       1977.       1982.       1986.       1986.       1983.       1981.    
        1976.       1976.       1976.       1983.       1987.       1987.       1985.       1969.       1966.       1972.    
        1975.       1975.       0.000       0.000       0.000       0.000       0.000       0.000       0.000    
  29    0.000       0.000       0.000       0.000       0.000       0.000       0.000       0.000       0.000       0.000    
        0.000       0.000       0.000       0.000       0.000       0.000       0.000       0.000       0.000       0.000    
        0.000       2207.       2199.       2180.       2155.       2137.       2124.       2111.       2100.       2089.    
        2081.       2077.       2068.       2057.       2045.       2029.       2016.       2006.       1997.       1990.    
        1983.       1977.       1975.       1978.       1981.       1979.       1980.       1975.       1969.       1958.    
        1946.       1939.       1947.       1959.       1968.       1971.       1976.       1975.       1976.       1976.    
        1969.       1969.       1970.       1979.       1987.       1986.       1982.       1972.       1959.       1967.    
        1970.       1970.       0.000       0.000       0.000       0.000       0.000       0.000       0.000    
  30    0.000       0.000       0.000       0.000       0.000       0.000       0.000       0.000       0.000       0.000    
        0.000       0.000       0.000       0.000       0.000       0.000       0.000       0.000       0.000       2242.    
        2213.       2193.       2175.       2153.       2132.       2118.       2107.       2098.       2088.       2080.    
        2076.       2065.       2055.       2047.       2035.       2021.       2006.       1994.       1987.       1975.    
        1970.       1965.       1965.       1960.       1981.       1977.       1973.       1969.       1964.       1957.    
        1944.       1934.       1942.       1956.       1959.       1960.       1964.       1964.       1969.       1970.    
        1964.       1962.       1965.       1974.       1983.       1980.       1975.       1971.       1953.       1957.    
        1966.       1966.       0.000       0.000       0.000       0.000       0.000       0.000       0.000    
  31    0.000       0.000       0.000       0.000       0.000       0.000       0.000       0.000       0.000       0.000    
        0.000       0.000       0.000       0.000       0.000       0.000       0.000       0.000       2248.       2227.    
        2201.       2173.       2149.       2132.       2115.       2104.       2096.       2086.       2077.       2070.    
        2065.       2058.       2044.       2038.       2030.       2015.       1998.       1987.       1975.       1963.    
        1961.       1955.       1955.       1954.       1981.       1975.       1964.       1964.       1959.       1953.    
        1940.       1929.       1937.       1949.       1950.       1950.       1952.       1956.       1963.       1963.    
        1957.       1953.       1960.       1969.       1976.       1974.       1968.       1966.       1955.       1941.    
        1952.       1959.       0.000       0.000       0.000       0.000       0.000       0.000       0.000    
  32    0.000       0.000       0.000       0.000       0.000       0.000       0.000       0.000       0.000       0.000    
        0.000       0.000       0.000       0.000       0.000       0.000       2266.       2248.       2227.       2212.    
        2187.       2159.       2133.       2110.       2100.       2092.       2084.       2076.       2068.       2061.    
        2055.       2050.       2039.       2032.       2024.       2011.       1995.       1975.       1963.       1960.    
        1956.       1952.       1950.       1952.       1981.       1965.       1957.       1957.       1956.       1950.    
        1937.       1927.       1927.       1933.       1936.       1939.       1941.       1948.       1953.       1953.    
        1947.       1943.       1953.       1961.       1969.       1968.       1962.       1960.       1950.       1935.    
        1945.       1955.       0.000       0.000       0.000       0.000       0.000       0.000       0.000    
  33    0.000       0.000       0.000       0.000       0.000       0.000       0.000       0.000       0.000       0.000    
        0.000       0.000       0.000       0.000       0.000       2293.       2256.       2231.       2214.       2200.    
        2178.       2152.       2122.       2098.       2089.       2083.       2074.       2066.       2060.       2053.    
        2047.       2043.       2038.       2030.       2016.       2003.       1990.       1972.       1962.       1963.    
        1958.       1954.       1954.       1949.       1975.       1960.       1947.       1949.       1950.       1945.    
        1937.       1927.       1921.       1921.       1924.       1925.       1929.       1935.       1938.       1937.    
        1934.       1935.       1943.       1952.       1958.       1957.       1956.       1955.       1940.       1933.    
        1945.       1952.       1953.       0.000       0.000       0.000       0.000       0.000       0.000    
  34    0.000       0.000       0.000       0.000       0.000       0.000       0.000       0.000       0.000       0.000    
        0.000       0.000       0.000       0.000       2311.       2282.       2247.       2221.       2207.       2195.    
        2173.       2147.       2122.       2099.       2081.       2073.       2063.       2058.       2052.       2046.    
        2041.       2037.       2029.       2022.       2013.       1994.       1984.       1970.       1976.       1975.    
        1973.       1955.       1955.       1952.       1981.       1941.       1937.       1931.       1938.       1937.    
        1933.       1928.       1921.       1917.       1915.       1914.       1916.       1919.       1922.       1924.    
        1919.       1927.       1933.       1941.       1944.       1941.       1936.       1936.       1916.       1925.    
        1935.       1944.       1946.       0.000       0.000       0.000       0.000       0.000       0.000    
  35    0.000       0.000       0.000       0.000       0.000       0.000       0.000       0.000       0.000       0.000    
        0.000       0.000       0.000       2309.       2293.       2276.       2248.       2211.       2200.       2188.    
        2164.       2144.       2123.       2102.       2083.       2071.       2062.       2054.       2045.       2040.    
        2034.       2029.       2021.       2011.       1997.       1992.       1984.       1984.       1996.       2004.    
        2004.       1995.       1960.       1956.       1981.       1944.       1944.       1936.       1924.       1920.    
        1919.       1918.       1919.       1920.       1912.       1909.       1910.       1909.       1910.       1910.    
        1911.       1919.       1927.       1929.       1930.       1931.       1922.       1916.       1903.       1910.    
        1921.       1933.       1944.       1945.       0.000       0.000       0.000       0.000       0.000    
  36    0.000       0.000       0.000       0.000       0.000       0.000       0.000       0.000       0.000       0.000    
        0.000       0.000       0.000       2292.       2280.       2268.       2242.       2210.       2189.       2175.    
        2159.       2139.       2122.       2104.       2090.       2077.       2064.       2054.       2045.       2037.    
        2028.       2021.       2014.       2007.       2004.       1995.       1987.       1992.       2006.       2009.    
        2009.       1998.       1981.       1981.       1970.       1951.       1949.       1940.       1928.       1921.    
        1918.       1914.       1910.       1912.       1906.       1905.       1905.       1904.       1903.       1903.    
        1906.       1912.       1918.       1918.       1915.       1917.       1909.       1905.       1897.       1898.    
        1905.       1920.       1934.       1937.       1936.       0.000       0.000       0.000       0.000    
  37    0.000       0.000       0.000       0.000       0.000       0.000       0.000       0.000       0.000       0.000    
        0.000       0.000       2297.       2284.       2273.       2259.       2239.       2206.       2188.       2170.    
        2149.       2132.       2114.       2100.       2090.       2077.       2064.       2055.       2050.       2042.    
        2031.       2024.       2019.       2015.       2012.       2002.       1991.       1995.       2005.       2010.    
        2007.       1994.       1981.       1970.       1957.       1958.       1954.       1939.       1930.       1925.    
        1921.       1916.       1913.       1910.       1908.       1905.       1903.       1902.       1902.       1900.    
        1901.       1906.       1908.       1907.       1904.       1899.       1894.       1890.       1889.       1890.    
        1894.       1902.       1909.       1912.       1913.       0.000       0.000       0.000       0.000    
  38    0.000       0.000       0.000       0.000       0.000       0.000       0.000       0.000       0.000       0.000    
        2324.       2303.       2291.       2277.       2266.       2254.       2236.       2208.       2195.       2172.    
        2156.       2142.       2123.       2102.       2096.       2085.       2071.       2060.       2055.       2047.    
        2037.       2033.       2029.       2023.       2020.       2010.       1997.       1997.       2003.       2011.    
        2004.       1988.       1979.       1971.       1965.       1967.       1962.       1947.       1936.       1929.    
        1924.       1919.       1916.       1914.       1912.       1908.       1905.       1904.       1902.       1901.    
        1897.       1893.       1893.       1893.       1893.       1890.       1888.       1885.       1883.       1881.    
        1880.       1883.       1887.       1889.       1892.       1888.       0.000       0.000       0.000    
  39    0.000       0.000       0.000       0.000       0.000       0.000       0.000       2390.       2363.       2343.    
        2319.       2302.       2284.       2272.       2263.       2251.       2234.       2217.       2201.       2187.    
        2163.       2146.       2126.       2111.       2107.       2096.       2077.       2067.       2061.       2050.    
        2045.       2041.       2033.       2027.       2026.       2016.       2002.       2001.       2005.       2014.    
        2010.       1991.       1984.       1975.       1976.       1980.       1977.       1965.       1945.       1934.    
        1929.       1923.       1920.       1919.       1917.       1915.       1912.       1909.       1906.       1904.    
        1903.       1907.       1915.       1921.       1913.       1899.       1892.       1883.       1878.       1876.    
        1872.       1872.       1872.       1874.       1873.       1870.       0.000       0.000       0.000    
  40    0.000       0.000       0.000       0.000       0.000       0.000       2414.       2392.       2363.       2340.    
        2318.       2298.       2285.       2274.       2263.       2253.       2241.       2226.       2211.       2191.    
        2168.       2148.       2132.       2128.       2127.       2107.       2092.       2080.       2068.       2057.    
        2054.       2046.       2040.       2035.       2031.       2021.       2004.       2008.       2017.       2020.    
        2019.       2010.       1993.       1982.       1984.       1994.       1989.       1974.       1953.       1944.    
        1935.       1930.       1930.       1927.       1928.       1929.       1926.       1929.       1924.       1910.    
        1908.       1917.       1931.       1936.       1938.       1935.       1919.       1891.       1884.       1879.    
        1875.       1871.       1868.       1866.       1864.       1863.       0.000       0.000       0.000    
  41    0.000       0.000       0.000       0.000       0.000       2448.       2432.       2397.       2373.       2348.    
        2323.       2303.       2287.       2276.       2270.       2262.       2252.       2239.       2213.       2194.    
        2178.       2158.       2145.       2141.       2137.       2124.       2103.       2089.       2072.       2068.    
        2059.       2051.       2044.       2039.       2034.       2023.       2010.       2020.       2029.       2030.    
        2026.       2020.       2005.       1992.       1990.       2006.       2001.       1984.       1969.       1952.    
        1946.       1942.       1944.       1943.       1942.       1949.       1942.       1947.       1932.       1919.    
        1915.       1926.       1937.       1944.       1947.       1947.       1932.       1905.       1892.       1884.    
        1892.       1892.       1892.       1892.       1892.       0.000       0.000       0.000       0.000    
  42    0.000       0.000       0.000       0.000       0.000       2465.       2453.       2421.       2393.       2362.    
        2329.       2308.       2296.       2286.       2287.       2282.       2275.       2255.       2224.       2202.    
        2184.       2170.       2152.       2138.       2130.       2118.       2100.       2089.       2082.       2073.    
        2063.       2053.       2049.       2044.       2037.       2024.       2020.       2036.       2041.       2038.    
        2035.       2026.       2013.       2005.       2000.       2002.       2012.       2006.       1993.       1965.    
        1961.       1959.       1962.       1964.       1964.       1964.       1960.       1950.       1935.       1925.    
        1923.       1934.       1945.       1951.       1953.       1947.       1933.       1912.       1897.       1892.    
        1877.       1875.       1871.       1870.       1892.       0.000       0.000       0.000       0.000    
  43    0.000       0.000       0.000       0.000       0.000       2481.       2469.       2430.       2399.       2368.    
        2338.       2317.       2312.       2309.       2305.       2299.       2293.       2273.       2246.       2212.    
        2194.       2179.       2161.       2152.       2137.       2126.       2117.       2108.       2093.       2077.    
        2067.       2062.       2055.       2048.       2040.       2026.       2029.       2045.       2050.       2046.    
        2045.       2044.       2024.       2013.       2008.       2010.       2021.       2021.       2012.       1990.    
        1987.       1983.       1985.       1986.       1983.       1976.       1966.       1952.       1943.       1930.    
        1929.       1939.       1950.       1958.       1958.       1950.       1925.       1917.       1901.       1892.    
        1876.       1873.       1872.       1881.       1892.       0.000       0.000       0.000       0.000    
  44    0.000       0.000       0.000       0.000       0.000       2484.       2466.       2433.       2397.       2365.    
        2341.       2328.       2320.       2313.       2304.       2298.       2293.       2286.       2263.       2236.    
        2208.       2180.       2184.       2172.       2157.       2143.       2130.       2119.       2102.       2082.    
        2074.       2069.       2060.       2052.       2041.       2029.       2036.       2055.       2063.       2057.    
        2051.       2052.       2051.       2035.       2020.       2021.       2032.       2032.       2025.       2020.    
        2015.       2010.       2009.       2007.       1998.       1990.       1975.       1953.       1947.       1937.    
        1936.       1941.       1951.       1961.       1961.       1951.       1920.       1887.       1886.       1882.    
        1875.       1873.       1872.       1884.       1891.       0.000       0.000       0.000       0.000    
  45    0.000       0.000       0.000       2485.       2477.       2476.       2459.       2429.       2385.       2359.    
        2337.       2323.       2312.       2300.       2284.       2276.       2275.       2270.       2260.       2238.    
        2204.       2210.       2197.       2181.       2168.       2154.       2137.       2122.       2106.       2088.    
        2080.       2072.       2065.       2056.       2043.       2032.       2045.       2066.       2078.       2072.    
        2061.       2052.       2049.       2044.       2033.       2029.       2042.       2042.       2043.       2044.    
        2041.       2037.       2037.       2031.       2014.       2001.       1980.       1961.       1953.       1946.    
        1940.       1943.       1951.       1959.       1959.       1950.       1940.       1910.       1882.       1881.    
        1878.       1874.       1875.       1877.       1909.       0.000       0.000       0.000       0.000    
  46    0.000       0.000       0.000       2486.       2470.       2463.       2450.       2414.       2377.       2351.    
        2327.       2310.       2296.       2282.       2271.       2266.       2259.       2251.       2236.       2236.    
        2239.       2228.       2208.       2197.       2182.       2161.       2139.       2124.       2111.       2097.    
        2084.       2075.       2067.       2055.       2044.       2036.       2049.       2069.       2083.       2078.    
        2069.       2058.       2050.       2043.       2035.       2033.       2044.       2050.       2057.       2062.    
        2064.       2068.       2064.       2050.       2035.       2012.       1988.       1968.       1961.       1956.    
        1947.       1952.       1955.       1962.       1959.       1947.       1938.       1910.       1884.       1883.    
        1882.       1878.       1879.       1898.       1922.       0.000       0.000       0.000       0.000    
  47    0.000       0.000       0.000       2487.       2469.       2456.       2436.       2406.       2370.       2341.    
        2319.       2296.       2286.       2279.       2270.       2265.       2264.       2262.       2259.       2258.    
        2250.       2238.       2223.       2207.       2188.       2163.       2143.       2131.       2119.       2106.    
        2091.       2078.       2069.       2060.       2051.       2039.       2045.       2061.       2073.       2073.    
        2069.       2066.       2056.       2045.       2036.       2035.       2043.       2052.       2063.       2073.    
        2082.       2090.       2085.       2069.       2049.       2025.       1995.       1977.       1965.       1957.    
        1954.       1959.       1962.       1964.       1959.       1946.       1937.       1910.       1885.       1884.    
        1883.       1880.       1881.       1900.       1924.       0.000       0.000       0.000       0.000    
  48    0.000       0.000       0.000       2492.       2475.       2454.       2425.       2395.       2360.       2336.    
        2307.       2292.       2286.       2280.       2277.       2274.       2280.       2284.       2283.       2281.    
        2263.       2245.       2227.       2208.       2187.       2165.       2147.       2138.       2128.       2115.    
        2099.       2086.       2075.       2069.       2069.       2064.       2048.       2051.       2061.       2067.    
        2070.       2074.       2071.       2060.       2047.       2037.       2041.       2057.       2070.       2083.    
        2099.       2107.       2098.       2086.       2069.       2041.       2010.       1988.       1970.       1961.    
        1964.       1967.       1970.       1967.       1956.       1948.       1939.       1920.       1905.       1886.    
        1884.       1882.       1883.       1910.       1929.       1941.       0.000       0.000       0.000    
  49    0.000       0.000       0.000       2494.       2478.       2457.       2415.       2385.       2356.       2333.    
        2311.       2295.       2294.       2291.       2286.       2291.       2295.       2298.       2300.       2283.    
        2261.       2243.       2226.       2205.       2190.       2171.       2160.       2145.       2133.       2119.    
        2105.       2095.       2083.       2080.       2079.       2078.       2064.       2051.       2055.       2063.    
        2073.       2080.       2083.       2078.       2065.       2047.       2039.       2053.       2069.       2091.    
        2111.       2127.       2118.       2101.       2083.       2056.       2026.       2000.       1982.       1970.    
        1972.       1976.       1978.       1975.       1960.       1951.       1944.       1937.       1929.       1911.    
        1887.       1886.       1887.       1914.       1935.       1943.       0.000       0.000       0.000    
  50    0.000       0.000       0.000       2502.       2485.       2449.       2412.       2381.       2346.       2331.    
        2322.       2305.       2309.       2307.       2307.       2312.       2311.       2303.       2288.       2270.    
        2253.       2237.       2222.       2204.       2191.       2178.       2167.       2156.       2141.       2125.    
        2110.       2101.       2092.       2087.       2084.       2080.       2068.       2057.       2055.       2064.    
        2075.       2084.       2091.       2092.       2086.       2062.       2047.       2048.       2063.       2088.    
        2116.       2136.       2136.       2120.       2097.       2074.       2042.       2018.       1998.       1983.    
        1978.       1984.       1992.       1989.       1972.       1958.       1949.       1942.       1935.       1931.    
        1915.       1905.       1915.       1920.       1942.       1949.       0.000       0.000       0.000    
  51    0.000       0.000       0.000       2502.       2478.       2437.       2407.       2375.       2338.       2327.    
        2317.       2322.       2333.       2331.       2336.       2336.       2320.       2293.       2274.       2260.    
        2248.       2237.       2224.       2211.       2202.       2186.       2170.       2158.       2147.       2131.    
        2117.       2106.       2097.       2091.       2085.       2079.       2067.       2059.       2058.       2064.    
        2075.       2086.       2094.       2099.       2098.       2080.       2055.       2047.       2052.       2079.    
        2109.       2135.       2152.       2137.       2111.       2086.       2058.       2032.       2011.       2001.    
        1987.       1991.       2000.       2003.       1990.       1969.       1954.       1948.       1942.       1944.    
        1939.       1928.       1935.       1944.       1950.       1956.       0.000       0.000       0.000    
  52    0.000       0.000       2508.       2495.       2466.       2425.       2395.       2368.       2341.       2327.    
        2333.       2341.       2350.       2356.       2358.       2352.       2338.       2312.       2294.       2273.    
        2255.       2243.       2233.       2220.       2209.       2194.       2175.       2160.       2147.       2136.    
        2124.       2110.       2100.       2092.       2084.       2076.       2067.       2059.       2060.       2064.    
        2074.       2085.       2096.       2102.       2107.       2099.       2076.       2055.       2051.       2066.    
        2099.       2131.       2151.       2148.       2128.       2101.       2068.       2044.       2024.       2011.    
        2001.       2002.       2007.       2009.       2004.       1983.       1964.       1956.       1957.       1957.    
        1953.       1938.       1940.       1954.       1961.       1967.       0.000       0.000       0.000    
  53    0.000       0.000       2514.       2494.       2456.       2421.       2392.       2359.       2345.       2339.    
        2349.       2356.       2368.       2374.       2375.       2372.       2362.       2342.       2314.       2293.    
        2274.       2255.       2243.       2232.       2223.       2207.       2185.       2166.       2148.       2135.    
        2124.       2113.       2102.       2093.       2084.       2075.       2069.       2062.       2062.       2068.    
        2078.       2092.       2102.       2113.       2119.       2118.       2097.       2071.       2064.       2066.    
        2094.       2123.       2149.       2155.       2136.       2107.       2080.       2054.       2033.       2020.    
        2015.       2013.       2013.       2013.       2006.       1989.       1973.       1966.       1967.       1969.    
        1966.       1955.       1947.       1963.       1980.       1983.       1992.       0.000       0.000    
  54    0.000       0.000       2517.       2486.       2443.       2416.       2399.       2382.       2359.       2359.    
        2363.       2370.       2382.       2387.       2389.       2395.       2390.       2363.       2339.       2318.    
        2291.       2271.       2257.       2245.       2236.       2219.       2195.       2175.       2155.       2136.    
        2122.       2113.       2101.       2092.       2083.       2075.       2071.       2065.       2067.       2077.    
        2091.       2103.       2120.       2132.       2143.       2143.       2118.       2091.       2082.       2074.    
        2089.       2120.       2146.       2158.       2145.       2114.       2089.       2067.       2044.       2030.    
        2025.       2026.       2023.       2020.       2016.       1998.       1983.       1976.       1980.       1983.    
        1984.       1972.       1959.       1967.       1983.       1991.       1996.       0.000       0.000    
  55    0.000       2544.       2516.       2487.       2463.       2438.       2413.       2395.       2371.       2377.    
        2375.       2386.       2394.       2399.       2403.       2409.       2411.       2383.       2358.       2337.    
        2310.       2287.       2269.       2255.       2243.       2227.       2205.       2184.       2162.       2139.    
        2124.       2112.       2101.       2091.       2083.       2076.       2073.       2068.       2074.       2087.    
        2102.       2119.       2137.       2153.       2165.       2166.       2135.       2110.       2096.       2089.    
        2095.       2117.       2142.       2162.       2155.       2124.       2099.       2083.       2064.       2042.    
        2038.       2036.       2034.       2028.       2021.       2008.       1997.       1988.       1992.       1997.    
        1998.       1996.       1971.       1978.       1988.       1995.       2002.       0.000       0.000    
  56    0.000       2539.       2505.       2475.       2465.       2455.       2434.       2405.       2396.       2386.    
        2383.       2399.       2408.       2409.       2414.       2422.       2423.       2401.       2380.       2358.    
        2335.       2308.       2284.       2267.       2250.       2236.       2215.       2193.       2168.       2142.    
        2129.       2116.       2102.       2091.       2085.       2080.       2076.       2073.       2080.       2094.    
        2112.       2131.       2152.       2169.       2184.       2184.       2149.       2128.       2112.       2105.    
        2100.       2113.       2141.       2164.       2162.       2132.       2112.       2094.       2076.       2058.    
        2048.       2049.       2048.       2038.       2026.       2016.       2006.       2000.       2002.       2010.    
        2015.       2010.       1982.       1987.       1999.       2005.       2006.       0.000       0.000    
  57    2568.       2529.       2479.       2465.       2467.       2462.       2437.       2438.       2411.       2397.    
        2412.       2423.       2424.       2422.       2428.       2435.       2436.       2421.       2404.       2380.    
        2353.       2331.       2299.       2280.       2260.       2243.       2225.       2203.       2173.       2151.    
        2133.       2117.       2104.       2093.       2086.       2081.       2077.       2078.       2085.       2097.    
        2112.       2132.       2156.       2171.       2186.       2193.       2172.       2144.       2128.       2119.    
        2111.       2119.       2141.       2168.       2175.       2145.       2125.       2107.       2091.       2076.    
        2062.       2067.       2065.       2052.       2036.       2026.       2018.       2010.       2011.       2018.    
        2025.       2020.       1993.       2000.       2005.       2009.       2011.       0.000       0.000    
  58    2571.       2527.       2483.       2465.       2460.       2460.       2460.       2456.       2422.       2424.    
        2434.       2443.       2444.       2435.       2440.       2446.       2450.       2437.       2415.       2391.    
        2365.       2343.       2319.       2293.       2273.       2253.       2235.       2210.       2182.       2157.    
        2140.       2122.       2108.       2097.       2088.       2083.       2080.       2080.       2086.       2095.    
        2108.       2127.       2146.       2163.       2184.       2196.       2201.       2167.       2148.       2136.    
        2128.       2128.       2145.       2172.       2184.       2160.       2140.       2123.       2107.       2090.    
        2079.       2083.       2080.       2068.       2052.       2039.       2029.       2023.       2023.       2028.    
        2025.       2017.       2004.       2011.       2013.       2014.       2016.       0.000       0.000    
  59    2578.       2541.       2494.       2472.       2461.       2460.       2478.       2476.       2464.       2450.    
        2456.       2463.       2460.       2454.       2454.       2456.       2464.       2449.       2426.       2402.    
        2372.       2352.       2330.       2303.       2282.       2263.       2241.       2215.       2187.       2165.    
        2144.       2128.       2111.       2100.       2090.       2085.       2081.       2082.       2088.       2095.    
        2108.       2125.       2145.       2163.       2182.       2200.       2207.       2193.       2166.       2154.    
        2145.       2142.       2149.       2176.       2190.       2175.       2155.       2141.       2126.       2109.    
        2096.       2100.       2094.       2082.       2066.       2049.       2043.       2035.       2037.       2036.    
        2026.       2017.       2015.       2019.       2018.       2020.       2026.       2033.       0.000    
  60    0.000       2562.       2530.       2505.       2495.       2480.       2505.       2508.       2503.       2490.    
        2490.       2483.       2471.       0.000       0.000       0.000       2473.       2459.       2436.       2409.    
        2383.       2358.       2334.       2318.       2302.       2276.       2249.       2220.       2197.       2172.    
        2147.       2133.       2117.       2103.       2094.       2087.       2083.       2084.       2088.       2096.    
        2107.       2126.       2145.       2162.       2185.       2208.       2218.       2210.       2189.       2168.    
        2159.       2156.       2155.       2175.       2192.       2186.       2171.       2158.       2141.       2128.    
        2118.       2124.       2118.       2100.       2082.       2065.       2058.       2052.       2050.       2041.    
        2028.       2021.       2023.       2026.       2025.       2029.       2037.       2042.       2045.    
  61    0.000       0.000       2559.       2551.       2532.       2529.       2528.       2524.       2533.       2535.    
        2518.       0.000       0.000       0.000       0.000       0.000       0.000       2466.       2439.       2414.    
        2388.       2360.       2338.       2320.       2312.       2280.       2253.       2227.       2203.       2175.    
        2155.       2141.       2120.       2107.       2098.       2089.       2086.       2085.       2089.       2096.    
        2108.       2124.       2144.       2164.       2186.       2212.       2233.       2229.       2206.       2186.    
        2171.       2165.       2166.       2174.       2192.       2196.       2188.       2175.       2158.       2145.    
        2135.       2141.       2141.       2119.       2100.       2084.       2072.       2063.       2057.       2042.    
        2033.       2027.       2031.       2033.       2033.       2040.       2046.       2049.       2052.    
  62    0.000       0.000       0.000       2556.       0.000       0.000       0.000       0.000       0.000       0.000    
        0.000       0.000       0.000       0.000       0.000       0.000       0.000       0.000       0.000       2417.    
        2391.       2363.       2337.       2322.       2307.       2279.       2258.       2233.       2206.       2181.    
        2160.       2143.       2125.       2111.       2101.       2093.       2089.       2087.       2089.       2097.    
        2108.       2123.       2144.       2162.       2183.       2210.       2236.       2243.       2231.       2203.    
        2187.       2177.       2176.       2178.       2190.       2204.       2204.       2193.       2179.       2165.    
        2149.       2159.       2156.       2140.       2119.       2102.       2088.       2072.       2057.       2046.    
        2037.       2036.       2039.       2038.       2042.       2047.       2053.       2057.       2060.    
  63    0.000       0.000       0.000       0.000       0.000       0.000       0.000       0.000       0.000       0.000    
        0.000       0.000       0.000       0.000       0.000       0.000       0.000       0.000       0.000       2419.    
        2394.       2359.       2337.       2321.       2307.       2282.       2261.       2237.       2213.       2183.    
        2163.       2148.       2133.       2114.       2103.       2096.       2092.       2089.       2092.       2098.    
        2107.       2122.       2141.       2159.       2182.       2202.       2228.       2251.       2248.       2228.    
        2201.       2191.       2186.       2185.       2195.       2208.       2219.       2213.       2202.       2194.    
        2182.       2180.       2177.       2159.       2141.       2117.       2097.       2081.       2065.       2050.    
        2042.       2043.       2044.       2045.       2048.       2054.       2059.       2064.       2068.    
  64    0.000       0.000       0.000       0.000       0.000       0.000       0.000       0.000       0.000       0.000    
        0.000       0.000       0.000       0.000       0.000       0.000       0.000       0.000       0.000       0.000    
        0.000       0.000       0.000       0.000       2309.       2289.       2267.       2244.       2221.       2189.    
        2170.       2151.       2138.       2123.       2106.       2098.       2094.       2092.       2093.       2097.    
        2107.       2119.       2138.       2156.       2177.       2200.       2224.       2246.       2258.       2250.    
        2227.       2211.       2206.       2198.       2200.       2211.       2224.       2232.       2228.       2217.    
        2208.       2204.       2195.       2181.       2160.       2131.       2103.       2085.       2069.       2055.    
        2049.       2049.       2050.       2050.       2053.       2058.       2065.       2072.       2077.    
  65    0.000       0.000       0.000       0.000       0.000       0.000       0.000       0.000       0.000       0.000    
        0.000       0.000       0.000       0.000       0.000       0.000       0.000       0.000       0.000       0.000    
        0.000       0.000       0.000       0.000       0.000       0.000       0.000       0.000       0.000       0.000    
        0.000       0.000       0.000       2127.       2114.       2101.       2096.       2094.       2094.       2098.    
        2105.       2118.       2133.       2150.       2172.       0.000       0.000       0.000       0.000       2261.    
        2250.       2240.       2235.       2219.       2207.       2212.       2225.       2240.       2246.       2238.    
        2231.       2222.       2208.       2192.       2170.       2141.       2111.       2087.       2074.       2061.    
        2058.       2056.       2057.       2057.       2057.       2063.       2069.       2076.       2081.    
  66    0.000       0.000       0.000       0.000       0.000       0.000       0.000       0.000       0.000       0.000    
        0.000       0.000       0.000       0.000       0.000       0.000       0.000       0.000       0.000       0.000    
        0.000       0.000       0.000       0.000       0.000       0.000       0.000       0.000       0.000       0.000    
        0.000       0.000       0.000       0.000       0.000       2106.       2100.       0.000       0.000       0.000    
        0.000       0.000       0.000       0.000       0.000       0.000       0.000       0.000       0.000       0.000    
        2258.       2255.       2254.       2237.       2222.       2218.       2228.       2245.       2259.       2256.    
        2248.       2234.       2219.       2198.       2176.       2145.       2114.       2093.       2081.       2073.    
        2071.       2066.       2065.       2062.       2060.       2064.       2071.       2077.       2085.    
  67    0.000       0.000       0.000       0.000       0.000       0.000       0.000       0.000       0.000       0.000    
        0.000       0.000       0.000       0.000       0.000       0.000       0.000       0.000       0.000       0.000    
        0.000       0.000       0.000       0.000       0.000       0.000       0.000       0.000       0.000       0.000    
        0.000       0.000       0.000       0.000       0.000       0.000       0.000       0.000       0.000       0.000    
        0.000       0.000       0.000       0.000       0.000       0.000       0.000       0.000       0.000       0.000    
        0.000       0.000       2262.       2252.       2234.       2226.       2231.       2245.       2264.       2269.    
        2260.       2247.       2222.       2202.       2180.       2150.       2123.       2098.       2089.       2084.    
        2076.       0.000       0.000       0.000       0.000       0.000       0.000       0.000       0.000    
  68    0.000       0.000       0.000       0.000       0.000       0.000       0.000       0.000       0.000       0.000    
        0.000       0.000       0.000       0.000       0.000       0.000       0.000       0.000       0.000       0.000    
        0.000       0.000       0.000       0.000       0.000       0.000       0.000       0.000       0.000       0.000    
        0.000       0.000       0.000       0.000       0.000       0.000       0.000       0.000       0.000       0.000    
        0.000       0.000       0.000       0.000       0.000       0.000       0.000       0.000       0.000       0.000    
        0.000       0.000       0.000       2260.       2244.       2234.       2231.       2241.       2257.       2277.    
        2266.       2252.       2230.       2208.       2186.       2156.       2130.       2109.       0.000       0.000    
        0.000       0.000       0.000       0.000       0.000       0.000       0.000       0.000       0.000    
  69    0.000       0.000       0.000       0.000       0.000       0.000       0.000       0.000       0.000       0.000    
        0.000       0.000       0.000       0.000       0.000       0.000       0.000       0.000       0.000       0.000    
        0.000       0.000       0.000       0.000       0.000       0.000       0.000       0.000       0.000       0.000    
        0.000       0.000       0.000       0.000       0.000       0.000       0.000       0.000       0.000       0.000    
        0.000       0.000       0.000       0.000       0.000       0.000       0.000       0.000       0.000       0.000    
        0.000       0.000       0.000       0.000       0.000       0.000       0.000       0.000       0.000       0.000    
        2279.       2261.       2240.       2218.       2195.       2167.       2142.       0.000       0.000       0.000    
        0.000       0.000       0.000       0.000       0.000       0.000       0.000       0.000       0.000    
  70    0.000       0.000       0.000       0.000       0.000       0.000       0.000       0.000       0.000       0.000    
        0.000       0.000       0.000       0.000       0.000       0.000       0.000       0.000       0.000       0.000    
        0.000       0.000       0.000       0.000       0.000       0.000       0.000       0.000       0.000       0.000    
        0.000       0.000       0.000       0.000       0.000       0.000       0.000       0.000       0.000       0.000    
        0.000       0.000       0.000       0.000       0.000       0.000       0.000       0.000       0.000       0.000    
        0.000       0.000       0.000       0.000       0.000       0.000       0.000       0.000       0.000       0.000    
        0.000       2275.       2254.       2230.       2208.       2177.       0.000       0.000       0.000       0.000    
        0.000       0.000       0.000       0.000       0.000       0.000       0.000       0.000       0.000    
  71    0.000       0.000       0.000       0.000       0.000       0.000       0.000       0.000       0.000       0.000    
        0.000       0.000       0.000       0.000       0.000       0.000       0.000       0.000       0.000       0.000    
        0.000       0.000       0.000       0.000       0.000       0.000       0.000       0.000       0.000       0.000    
        0.000       0.000       0.000       0.000       0.000       0.000       0.000       0.000       0.000       0.000    
        0.000       0.000       0.000       0.000       0.000       0.000       0.000       0.000       0.000       0.000    
        0.000       0.000       0.000       0.000       0.000       0.000       0.000       0.000       0.000       0.000    
        0.000       0.000       2269.       2243.       0.000       0.000       0.000       0.000       0.000       0.000    
        0.000       0.000       0.000       0.000       0.000       0.000       0.000       0.000       0.000    



             MODEL LAYER BOTTOM EL. FOR LAYER   3
 READING ON UNIT   11 WITH FORMAT: (FREE)              

            1           2           3           4           5           6           7           8           9          10
           11          12          13          14          15          16          17          18          19          20
           21          22          23          24          25          26          27          28          29          30
           31          32          33          34          35          36          37          38          39          40
           41          42          43          44          45          46          47          48          49          50
           51          52          53          54          55          56          57          58          59          60
           61          62          63          64          65          66          67          68          69          70
           71          72          73          74          75          76          77          78          79
 ........................................................................................................................
   1    0.000       0.000       0.000       0.000       0.000       0.000       0.000       0.000       0.000       0.000    
        0.000       0.000       0.000       0.000       0.000       0.000       0.000       0.000       0.000       0.000    
        0.000       0.000       0.000       0.000       0.000       0.000       0.000       0.000       0.000       0.000    
        0.000       0.000       0.000       0.000       0.000       0.000       0.000       0.000       0.000       0.000    
        0.000       0.000       0.000       0.000       0.000       0.000       0.000       0.000       0.000       0.000    
        0.000       2056.       2046.       0.000       0.000       0.000       0.000       0.000       0.000       0.000    
        0.000       0.000       0.000       0.000       0.000       0.000       0.000       0.000       0.000       0.000    
        0.000       0.000       0.000       0.000       0.000       0.000       0.000       0.000       0.000    
   2    0.000       0.000       0.000       0.000       0.000       0.000       0.000       0.000       0.000       0.000    
        0.000       0.000       0.000       0.000       0.000       0.000       0.000       0.000       0.000       0.000    
        0.000       0.000       0.000       0.000       0.000       0.000       0.000       0.000       0.000       0.000    
        0.000       0.000       0.000       0.000       0.000       0.000       0.000       0.000       0.000       0.000    
        0.000       0.000       0.000       0.000       0.000       0.000       0.000       0.000       0.000       0.000    
        0.000       2054.       2040.       2015.       0.000       0.000       0.000       0.000       0.000       0.000    
        0.000       0.000       0.000       0.000       0.000       0.000       0.000       0.000       0.000       0.000    
        0.000       0.000       0.000       0.000       0.000       0.000       0.000       0.000       0.000    
   3    0.000       0.000       0.000       0.000       0.000       0.000       0.000       0.000       0.000       0.000    
        0.000       0.000       0.000       0.000       0.000       0.000       0.000       0.000       0.000       0.000    
        0.000       0.000       0.000       0.000       0.000       0.000       0.000       0.000       0.000       0.000    
        0.000       0.000       0.000       0.000       0.000       0.000       0.000       0.000       0.000       0.000    
        0.000       0.000       0.000       0.000       0.000       0.000       0.000       0.000       0.000       0.000    
        0.000       2047.       2032.       2005.       0.000       0.000       0.000       0.000       0.000       0.000    
        0.000       0.000       0.000       0.000       0.000       0.000       0.000       0.000       0.000       0.000    
        0.000       0.000       0.000       0.000       0.000       0.000       0.000       0.000       0.000    
   4    0.000       0.000       0.000       0.000       0.000       0.000       0.000       0.000       0.000       0.000    
        0.000       0.000       0.000       0.000       0.000       0.000       0.000       0.000       0.000       0.000    
        0.000       0.000       0.000       0.000       0.000       0.000       0.000       0.000       0.000       0.000    
        0.000       0.000       0.000       0.000       0.000       0.000       0.000       0.000       0.000       0.000    
        0.000       0.000       0.000       0.000       0.000       0.000       0.000       0.000       0.000       0.000    
        0.000       2040.       2021.       2004.       2003.       0.000       0.000       0.000       0.000       0.000    
        0.000       0.000       0.000       0.000       0.000       0.000       0.000       0.000       0.000       0.000    
        0.000       0.000       0.000       0.000       0.000       0.000       0.000       0.000       0.000    
   5    0.000       0.000       0.000       0.000       0.000       0.000       0.000       0.000       0.000       0.000    
        0.000       0.000       0.000       0.000       0.000       0.000       0.000       0.000       0.000       0.000    
        0.000       0.000       0.000       0.000       0.000       0.000       0.000       0.000       0.000       0.000    
        0.000       0.000       0.000       0.000       0.000       0.000       0.000       0.000       0.000       0.000    
        0.000       0.000       0.000       0.000       0.000       0.000       0.000       0.000       0.000       0.000    
        0.000       2034.       2014.       2003.       2001.       2001.       1999.       0.000       0.000       0.000    
        0.000       0.000       0.000       0.000       0.000       0.000       0.000       0.000       0.000       0.000    
        0.000       0.000       0.000       0.000       0.000       0.000       0.000       0.000       0.000    
   6    0.000       0.000       0.000       0.000       0.000       0.000       0.000       0.000       0.000       0.000    
        0.000       0.000       0.000       0.000       0.000       0.000       0.000       0.000       0.000       0.000    
        0.000       0.000       0.000       0.000       0.000       0.000       0.000       0.000       0.000       0.000    
        0.000       0.000       0.000       0.000       0.000       0.000       0.000       0.000       0.000       0.000    
        0.000       0.000       0.000       0.000       0.000       0.000       0.000       0.000       0.000       0.000    
        0.000       2032.       2015.       2004.       2002.       1999.       1997.       1999.       2003.       0.000    
        0.000       0.000       0.000       2005.       2007.       0.000       0.000       0.000       0.000       0.000    
        0.000       0.000       0.000       0.000       0.000       0.000       0.000       0.000       0.000    
   7    0.000       0.000       0.000       0.000       0.000       0.000       0.000       0.000       0.000       0.000    
        0.000       0.000       0.000       0.000       0.000       0.000       0.000       0.000       0.000       0.000    
        0.000       0.000       0.000       0.000       0.000       0.000       0.000       0.000       0.000       0.000    
        0.000       0.000       0.000       0.000       0.000       0.000       0.000       0.000       0.000       0.000    
        0.000       0.000       0.000       0.000       0.000       0.000       0.000       0.000       0.000       0.000    
        0.000       2034.       2019.       2015.       2003.       1996.       1994.       1997.       2002.       2005.    
        2009.       2007.       2004.       2002.       2005.       2006.       0.000       0.000       0.000       0.000    
        0.000       0.000       0.000       0.000       0.000       0.000       0.000       0.000       0.000    
   8    0.000       0.000       0.000       0.000       0.000       0.000       0.000       0.000       0.000       0.000    
        0.000       0.000       0.000       0.000       0.000       0.000       0.000       0.000       0.000       0.000    
        0.000       0.000       0.000       0.000       0.000       0.000       0.000       0.000       0.000       0.000    
        0.000       0.000       0.000       0.000       0.000       0.000       0.000       0.000       0.000       0.000    
        0.000       0.000       0.000       0.000       0.000       0.000       0.000       0.000       0.000       0.000    
        0.000       2041.       2029.       2019.       2003.       1992.       1992.       1994.       2000.       2006.    
        2009.       2008.       2005.       2000.       1999.       2000.       2000.       2001.       0.000       0.000    
        0.000       0.000       0.000       0.000       0.000       0.000       0.000       0.000       0.000    
   9    0.000       0.000       0.000       0.000       0.000       0.000       0.000       0.000       0.000       0.000    
        0.000       0.000       0.000       0.000       0.000       0.000       0.000       0.000       0.000       0.000    
        0.000       0.000       0.000       0.000       0.000       0.000       0.000       0.000       0.000       0.000    
        0.000       0.000       0.000       0.000       0.000       0.000       0.000       0.000       0.000       0.000    
        0.000       0.000       0.000       0.000       0.000       0.000       0.000       0.000       0.000       0.000    
        2043.       2035.       2024.       2015.       2004.       1993.       1989.       1991.       1993.       2002.    
        2008.       2008.       2005.       1999.       1993.       1991.       1994.       1999.       2003.       0.000    
        0.000       0.000       0.000       0.000       0.000       0.000       0.000       0.000       0.000    
  10    0.000       0.000       0.000       0.000       0.000       0.000       0.000       0.000       0.000       0.000    
        0.000       0.000       0.000       0.000       0.000       0.000       0.000       0.000       0.000       0.000    
        0.000       0.000       0.000       0.000       0.000       0.000       0.000       0.000       0.000       0.000    
        0.000       0.000       0.000       0.000       0.000       0.000       0.000       0.000       0.000       0.000    
        0.000       0.000       0.000       0.000       0.000       0.000       0.000       0.000       0.000       2034.    
        2037.       2030.       2023.       2013.       2000.       1994.       1989.       1990.       1991.       1998.    
        2003.       2004.       2002.       1999.       1994.       1982.       1989.       1998.       2005.       2010.    
        0.000       0.000       0.000       0.000       0.000       0.000       0.000       0.000       0.000    
  11    0.000       0.000       0.000       0.000       0.000       0.000       0.000       0.000       0.000       0.000    
        0.000       0.000       0.000       0.000       0.000       0.000       0.000       0.000       0.000       0.000    
        0.000       0.000       0.000       0.000       0.000       0.000       0.000       0.000       0.000       0.000    
        0.000       0.000       0.000       0.000       0.000       0.000       0.000       0.000       0.000       0.000    
        0.000       0.000       0.000       0.000       0.000       0.000       0.000       0.000       2033.       2031.    
        2029.       2026.       2022.       2013.       2001.       1994.       1989.       1988.       1988.       1991.    
        1995.       1995.       1996.       1995.       1990.       1980.       1987.       1995.       2002.       2008.    
        2013.       0.000       0.000       0.000       0.000       0.000       0.000       0.000       0.000    
  12    0.000       0.000       0.000       0.000       0.000       0.000       0.000       0.000       0.000       0.000    
        0.000       0.000       0.000       0.000       0.000       0.000       0.000       0.000       0.000       0.000    
        0.000       0.000       0.000       0.000       0.000       0.000       0.000       0.000       0.000       0.000    
        0.000       0.000       0.000       0.000       0.000       0.000       0.000       0.000       0.000       0.000    
        0.000       2070.       2064.       0.000       0.000       0.000       0.000       2039.       2035.       2029.    
        2026.       2020.       2019.       2018.       2004.       1995.       1991.       1986.       1984.       1985.    
        1987.       1989.       1990.       1989.       1984.       1977.       1980.       1988.       1995.       2006.    
        2011.       0.000       0.000       0.000       0.000       0.000       0.000       0.000       0.000    
  13    0.000       0.000       0.000       0.000       0.000       0.000       0.000       0.000       0.000       0.000    
        0.000       0.000       0.000       0.000       0.000       0.000       0.000       0.000       0.000       0.000    
        0.000       0.000       0.000       0.000       0.000       0.000       0.000       0.000       0.000       0.000    
        0.000       0.000       0.000       0.000       0.000       0.000       0.000       0.000       2071.       2068.    
        2067.       2065.       2054.       2050.       2048.       2047.       2044.       2040.       2033.       2027.    
        2022.       2017.       2014.       2011.       2005.       1997.       1991.       1985.       1981.       1979.    
        1980.       1981.       1986.       1984.       1979.       1971.       1972.       1979.       1991.       2004.    
        2006.       2007.       0.000       0.000       0.000       0.000       0.000       0.000       0.000    
  14    0.000       0.000       0.000       0.000       0.000       0.000       0.000       0.000       0.000       0.000    
        0.000       0.000       0.000       0.000       0.000       0.000       0.000       0.000       0.000       0.000    
        0.000       0.000       0.000       0.000       0.000       0.000       0.000       0.000       0.000       0.000    
        0.000       0.000       0.000       0.000       0.000       0.000       0.000       0.000       2071.       2061.    
        2055.       2051.       2041.       2040.       2040.       2044.       2043.       2038.       2031.       2025.    
        2020.       2015.       2011.       2007.       2003.       1999.       1993.       1987.       1981.       1975.    
        1975.       1977.       1980.       1980.       1972.       1964.       1963.       1970.       1981.       1996.    
        1999.       2001.       2001.       0.000       0.000       0.000       0.000       0.000       0.000    
  15    0.000       0.000       0.000       0.000       0.000       0.000       0.000       0.000       0.000       0.000    
        0.000       0.000       0.000       0.000       0.000       0.000       0.000       0.000       0.000       0.000    
        0.000       0.000       0.000       0.000       0.000       0.000       0.000       0.000       0.000       0.000    
        0.000       0.000       0.000       0.000       0.000       0.000       0.000       2080.       2069.       2061.    
        2053.       2036.       2028.       2025.       2026.       2033.       2035.       2034.       2029.       2023.    
        2017.       2012.       2007.       2003.       1999.       1996.       1994.       1989.       1983.       1974.    
        1970.       1973.       1975.       1973.       1970.       1961.       1956.       1961.       1968.       1980.    
        1988.       1993.       1997.       0.000       0.000       0.000       0.000       0.000       0.000    
  16    0.000       0.000       0.000       0.000       0.000       0.000       0.000       0.000       0.000       0.000    
        0.000       0.000       0.000       0.000       0.000       0.000       0.000       0.000       0.000       0.000    
        0.000       0.000       0.000       0.000       0.000       0.000       0.000       0.000       0.000       0.000    
        0.000       0.000       0.000       0.000       0.000       0.000       2090.       2078.       2069.       2058.    
        2047.       2038.       2033.       2029.       2014.       2019.       2020.       2023.       2022.       2019.    
        2015.       2008.       2003.       1998.       1994.       1992.       1990.       1988.       1984.       1980.    
        1966.       1969.       1972.       1971.       1969.       1961.       1953.       1953.       1955.       1967.    
        1975.       1985.       1992.       1993.       0.000       0.000       0.000       0.000       0.000    
  17    0.000       0.000       0.000       0.000       0.000       0.000       0.000       0.000       0.000       0.000    
        0.000       0.000       0.000       0.000       0.000       0.000       0.000       0.000       0.000       0.000    
        0.000       0.000       0.000       0.000       0.000       0.000       0.000       0.000       0.000       0.000    
        0.000       0.000       0.000       0.000       0.000       2091.       2085.       2069.       2062.       2053.    
        2041.       2038.       2035.       2031.       2018.       2007.       2005.       2005.       2012.       2012.    
        2008.       2002.       1996.       1993.       1991.       1989.       1988.       1986.       1983.       1980.    
        1966.       1965.       1970.       1968.       1961.       1950.       1948.       1945.       1946.       1952.    
        1960.       1976.       1984.       1986.       0.000       0.000       0.000       0.000       0.000    
  18    0.000       0.000       0.000       0.000       0.000       0.000       0.000       0.000       0.000       0.000    
        0.000       0.000       0.000       0.000       0.000       0.000       0.000       0.000       0.000       0.000    
        0.000       0.000       0.000       0.000       0.000       0.000       0.000       0.000       0.000       0.000    
        0.000       0.000       0.000       0.000       2097.       2090.       2077.       2065.       2057.       2050.    
        2041.       2038.       2033.       2029.       2016.       2009.       2000.       1988.       1998.       2003.    
        2000.       1994.       1991.       1987.       1985.       1985.       1985.       1984.       1982.       1976.    
        1969.       1956.       1961.       1958.       1950.       1943.       1943.       1940.       1940.       1939.    
        1949.       1964.       1974.       1979.       0.000       0.000       0.000       0.000       0.000    
  19    0.000       0.000       0.000       0.000       0.000       0.000       0.000       0.000       0.000       0.000    
        0.000       0.000       0.000       0.000       0.000       0.000       0.000       0.000       0.000       0.000    
        0.000       0.000       0.000       0.000       0.000       0.000       0.000       0.000       0.000       0.000    
        0.000       0.000       0.000       2103.       2091.       2093.       2078.       2067.       2064.       2055.    
        2046.       2040.       2034.       2030.       2022.       2016.       2000.       1975.       1982.       1991.    
        1992.       1986.       1985.       1982.       1980.       1981.       1983.       1983.       1981.       1972.    
        1964.       1954.       1946.       1946.       1943.       1938.       1940.       1939.       1939.       1939.    
        1941.       1953.       1967.       1979.       0.000       0.000       0.000       0.000       0.000    
  20    0.000       0.000       0.000       0.000       0.000       0.000       0.000       0.000       0.000       0.000    
        0.000       0.000       0.000       0.000       0.000       0.000       0.000       0.000       0.000       0.000    
        0.000       0.000       0.000       0.000       0.000       0.000       0.000       0.000       0.000       0.000    
        0.000       0.000       0.000       2102.       2110.       2111.       2093.       2082.       2070.       2062.    
        2055.       2042.       2032.       2029.       2021.       2015.       1996.       1970.       1972.       1978.    
        1982.       1978.       1978.       1976.       1976.       1977.       1981.       1980.       1975.       1967.    
        1960.       1952.       1943.       1937.       1938.       1936.       1939.       1942.       1943.       1945.    
        1943.       1950.       1966.       1993.       0.000       0.000       0.000       0.000       0.000    
  21    0.000       0.000       0.000       0.000       0.000       0.000       0.000       0.000       0.000       0.000    
        0.000       0.000       0.000       0.000       0.000       0.000       0.000       0.000       0.000       0.000    
        0.000       0.000       0.000       0.000       0.000       0.000       0.000       0.000       0.000       0.000    
        0.000       0.000       2113.       2122.       2126.       2113.       2093.       2077.       2062.       2051.    
        2041.       2031.       2022.       2014.       2007.       1999.       1983.       1960.       1957.       1964.    
        1970.       1968.       1968.       1968.       1971.       1974.       1978.       1975.       1968.       1963.    
        1958.       1950.       1943.       1934.       1934.       1935.       1944.       1948.       1956.       1956.    
        1953.       1953.       1965.       1980.       1990.       0.000       0.000       0.000       0.000    
  22    0.000       0.000       0.000       0.000       0.000       0.000       0.000       0.000       0.000       0.000    
        0.000       0.000       0.000       0.000       0.000       0.000       0.000       0.000       0.000       0.000    
        0.000       0.000       0.000       0.000       0.000       0.000       0.000       0.000       0.000       0.000    
        0.000       0.000       2131.       2128.       2115.       2098.       2082.       2066.       2054.       2045.    
        2034.       2021.       2009.       1997.       1983.       1975.       1958.       1948.       1943.       1951.    
        1960.       1960.       1959.       1963.       1968.       1971.       1974.       1970.       1964.       1958.    
        1954.       1949.       1944.       1934.       1931.       1934.       1941.       1948.       1953.       1958.    
        1963.       1960.       1960.       1970.       0.000       0.000       0.000       0.000       0.000    
  23    0.000       0.000       0.000       0.000       0.000       0.000       0.000       0.000       0.000       0.000    
        0.000       0.000       0.000       0.000       0.000       0.000       0.000       0.000       0.000       0.000    
        0.000       0.000       0.000       0.000       0.000       0.000       0.000       0.000       0.000       0.000    
        0.000       2140.       2126.       2113.       2099.       2084.       2068.       2056.       2043.       2033.    
        2027.       2019.       2006.       1994.       1975.       1956.       1945.       1938.       1932.       1943.    
        1950.       1950.       1952.       1957.       1965.       1968.       1972.       1971.       1962.       1954.    
        1952.       1948.       1944.       1933.       1928.       1930.       1936.       1945.       1953.       1960.    
        1969.       0.000       0.000       0.000       0.000       0.000       0.000       0.000       0.000    
  24    0.000       0.000       0.000       0.000       0.000       0.000       0.000       0.000       0.000       0.000    
        0.000       0.000       0.000       0.000       0.000       0.000       0.000       0.000       0.000       0.000    
        0.000       0.000       0.000       0.000       0.000       0.000       0.000       0.000       2136.       2141.    
        2134.       2123.       2109.       2095.       2082.       2065.       2052.       2039.       2028.       2019.    
        2012.       2002.       1994.       1988.       1976.       1958.       1942.       1930.       1923.       1933.    
        1937.       1937.       1942.       1956.       1960.       1964.       1968.       1969.       1960.       1954.    
        1949.       1948.       1945.       1931.       1928.       1928.       1930.       1939.       1950.       1960.    
        1970.       0.000       0.000       0.000       0.000       0.000       0.000       0.000       0.000    
  25    0.000       0.000       0.000       0.000       0.000       0.000       0.000       0.000       0.000       0.000    
        0.000       0.000       0.000       0.000       0.000       0.000       0.000       0.000       0.000       0.000    
        0.000       0.000       0.000       0.000       0.000       0.000       0.000       2148.       2123.       2112.    
        2112.       2101.       2090.       2079.       2064.       2051.       2038.       2022.       2009.       2002.    
        1996.       1989.       1980.       1975.       1970.       1960.       1941.       1928.       1918.       1921.    
        1925.       1926.       1932.       1947.       1954.       1957.       1961.       1964.       1958.       1948.    
        1945.       1945.       1945.       1940.       1932.       1932.       1928.       1931.       1942.       1951.    
        1962.       0.000       0.000       0.000       0.000       0.000       0.000       0.000       0.000    
  26    0.000       0.000       0.000       0.000       0.000       0.000       0.000       0.000       0.000       0.000    
        0.000       0.000       0.000       0.000       0.000       0.000       0.000       0.000       0.000       0.000    
        0.000       0.000       0.000       0.000       0.000       2157.       2142.       2120.       2095.       2086.    
        2085.       2079.       2070.       2060.       2047.       2034.       2018.       2002.       1991.       1986.    
        1981.       1971.       1966.       1962.       1960.       1955.       1944.       1925.       1916.       1909.    
        1910.       1915.       1923.       1938.       1947.       1951.       1954.       1957.       1953.       1944.    
        1940.       1942.       1941.       1941.       1940.       1933.       1932.       1925.       1932.       1941.    
        1948.       0.000       0.000       0.000       0.000       0.000       0.000       0.000       0.000    
  27    0.000       0.000       0.000       0.000       0.000       0.000       0.000       0.000       0.000       0.000    
        0.000       0.000       0.000       0.000       0.000       0.000       0.000       0.000       0.000       0.000    
        0.000       0.000       0.000       0.000       2156.       2135.       2118.       2100.       2076.       2058.    
        2062.       2059.       2053.       2042.       2030.       2013.       1995.       1984.       1978.       1971.    
        1963.       1957.       1951.       1951.       1950.       1949.       1941.       1929.       1920.       1909.    
        1902.       1906.       1916.       1928.       1943.       1945.       1947.       1948.       1944.       1939.    
        1935.       1935.       1936.       1940.       1940.       1937.       1935.       1924.       1926.       1931.    
        1935.       0.000       0.000       0.000       0.000       0.000       0.000       0.000       0.000    
  28    0.000       0.000       0.000       0.000       0.000       0.000       0.000       0.000       0.000       0.000    
        0.000       0.000       0.000       0.000       0.000       0.000       0.000       0.000       0.000       0.000    
        0.000       0.000       0.000       2156.       2133.       2112.       2096.       2081.       2062.       2049.    
        2046.       2045.       2037.       2025.       2012.       1996.       1980.       1971.       1963.       1955.    
        1947.       1943.       1939.       1940.       1941.       1941.       1937.       1931.       1922.       1911.    
        1897.       1900.       1908.       1921.       1932.       1937.       1939.       1939.       1936.       1934.    
        1929.       1929.       1929.       1936.       1940.       1940.       1938.       1922.       1919.       1925.    
        1928.       1928.       0.000       0.000       0.000       0.000       0.000       0.000       0.000    
  29    0.000       0.000       0.000       0.000       0.000       0.000       0.000       0.000       0.000       0.000    
        0.000       0.000       0.000       0.000       0.000       0.000       0.000       0.000       0.000       0.000    
        0.000       2160.       2152.       2133.       2108.       2090.       2077.       2064.       2053.       2042.    
        2034.       2030.       2021.       2010.       1998.       1982.       1969.       1959.       1950.       1943.    
        1936.       1930.       1928.       1931.       1931.       1932.       1933.       1928.       1922.       1913.    
        1901.       1894.       1902.       1914.       1923.       1926.       1931.       1930.       1929.       1929.    
        1922.       1922.       1923.       1932.       1940.       1939.       1935.       1925.       1912.       1920.    
        1923.       1923.       0.000       0.000       0.000       0.000       0.000       0.000       0.000    
  30    0.000       0.000       0.000       0.000       0.000       0.000       0.000       0.000       0.000       0.000    
        0.000       0.000       0.000       0.000       0.000       0.000       0.000       0.000       0.000       2195.    
        2166.       2146.       2128.       2106.       2085.       2071.       2060.       2051.       2041.       2033.    
        2029.       2018.       2008.       2000.       1988.       1974.       1959.       1947.       1940.       1931.    
        1925.       1920.       1918.       1921.       1922.       1923.       1926.       1922.       1917.       1912.    
        1899.       1889.       1897.       1911.       1914.       1915.       1919.       1919.       1924.       1925.    
        1919.       1917.       1918.       1927.       1936.       1933.       1928.       1924.       1906.       1910.    
        1919.       1919.       0.000       0.000       0.000       0.000       0.000       0.000       0.000    
  31    0.000       0.000       0.000       0.000       0.000       0.000       0.000       0.000       0.000       0.000    
        0.000       0.000       0.000       0.000       0.000       0.000       0.000       0.000       2201.       2180.    
        2154.       2126.       2102.       2085.       2068.       2057.       2049.       2039.       2030.       2023.    
        2018.       2011.       1997.       1991.       1983.       1968.       1951.       1940.       1931.       1925.    
        1919.       1914.       1912.       1912.       1914.       1916.       1917.       1917.       1912.       1908.    
        1895.       1884.       1892.       1904.       1905.       1905.       1907.       1911.       1918.       1918.    
        1912.       1908.       1915.       1922.       1929.       1927.       1921.       1919.       1908.       1894.    
        1905.       1912.       0.000       0.000       0.000       0.000       0.000       0.000       0.000    
  32    0.000       0.000       0.000       0.000       0.000       0.000       0.000       0.000       0.000       0.000    
        0.000       0.000       0.000       0.000       0.000       0.000       2219.       2201.       2180.       2165.    
        2140.       2112.       2086.       2063.       2053.       2045.       2037.       2029.       2021.       2014.    
        2008.       2003.       1992.       1985.       1977.       1964.       1948.       1934.       1927.       1920.    
        1913.       1908.       1906.       1905.       1906.       1908.       1910.       1910.       1909.       1903.    
        1892.       1882.       1882.       1888.       1891.       1894.       1896.       1903.       1908.       1908.    
        1902.       1898.       1908.       1916.       1922.       1921.       1915.       1913.       1905.       1890.    
        1898.       1908.       0.000       0.000       0.000       0.000       0.000       0.000       0.000    
  33    0.000       0.000       0.000       0.000       0.000       0.000       0.000       0.000       0.000       0.000    
        0.000       0.000       0.000       0.000       0.000       2246.       2209.       2184.       2167.       2153.    
        2131.       2105.       2075.       2051.       2042.       2036.       2027.       2019.       2013.       2006.    
        2000.       1996.       1991.       1983.       1969.       1956.       1943.       1932.       1921.       1922.    
        1920.       1914.       1907.       1902.       1900.       1900.       1900.       1902.       1903.       1898.    
        1892.       1882.       1876.       1876.       1879.       1880.       1884.       1890.       1893.       1892.    
        1889.       1890.       1898.       1907.       1913.       1912.       1911.       1910.       1895.       1888.    
        1900.       1905.       1906.       0.000       0.000       0.000       0.000       0.000       0.000    
  34    0.000       0.000       0.000       0.000       0.000       0.000       0.000       0.000       0.000       0.000    
        0.000       0.000       0.000       0.000       2264.       2235.       2200.       2174.       2160.       2148.    
        2126.       2100.       2075.       2052.       2034.       2026.       2016.       2011.       2005.       1999.    
        1994.       1990.       1982.       1975.       1966.       1947.       1937.       1929.       1932.       1932.    
        1933.       1927.       1916.       1905.       1899.       1894.       1890.       1884.       1891.       1890.    
        1886.       1883.       1876.       1872.       1870.       1869.       1871.       1874.       1877.       1879.    
        1874.       1882.       1888.       1896.       1899.       1896.       1891.       1891.       1871.       1880.    
        1890.       1899.       1899.       0.000       0.000       0.000       0.000       0.000       0.000    
  35    0.000       0.000       0.000       0.000       0.000       0.000       0.000       0.000       0.000       0.000    
        0.000       0.000       0.000       2262.       2246.       2229.       2201.       2164.       2153.       2141.    
        2117.       2097.       2076.       2055.       2036.       2024.       2015.       2007.       1998.       1993.    
        1987.       1982.       1974.       1964.       1950.       1945.       1937.       1937.       1949.       1957.    
        1957.       1948.       1924.       1909.       1902.       1897.       1897.       1889.       1877.       1873.    
        1872.       1871.       1872.       1875.       1867.       1864.       1865.       1864.       1865.       1865.    
        1866.       1874.       1882.       1884.       1885.       1886.       1877.       1871.       1858.       1865.    
        1876.       1888.       1897.       1898.       0.000       0.000       0.000       0.000       0.000    
  36    0.000       0.000       0.000       0.000       0.000       0.000       0.000       0.000       0.000       0.000    
        0.000       0.000       0.000       2245.       2233.       2221.       2195.       2163.       2142.       2128.    
        2112.       2092.       2075.       2057.       2043.       2030.       2017.       2007.       1998.       1990.    
        1981.       1974.       1967.       1960.       1957.       1948.       1940.       1945.       1959.       1962.    
        1962.       1951.       1934.       1919.       1906.       1904.       1902.       1893.       1881.       1874.    
        1871.       1867.       1863.       1865.       1859.       1858.       1858.       1857.       1858.       1858.    
        1861.       1854.       1853.       1853.       1870.       1872.       1864.       1860.       1852.       1853.    
        1860.       1875.       1889.       1883.       1878.       0.000       0.000       0.000       0.000    
  37    0.000       0.000       0.000       0.000       0.000       0.000       0.000       0.000       0.000       0.000    
        0.000       0.000       2250.       2237.       2226.       2212.       2192.       2159.       2141.       2123.    
        2102.       2085.       2067.       2053.       2043.       2030.       2017.       2008.       2003.       1995.    
        1984.       1977.       1972.       1968.       1965.       1955.       1944.       1948.       1958.       1963.    
        1960.       1947.       1934.       1923.       1910.       1911.       1907.       1892.       1883.       1878.    
        1874.       1869.       1866.       1863.       1861.       1858.       1856.       1855.       1857.       1855.    
        1856.       1859.       1861.       1860.       1857.       1839.       1849.       1845.       1844.       1845.    
        1849.       1857.       1864.       1853.       1868.       0.000       0.000       0.000       0.000    
  38    0.000       0.000       0.000       0.000       0.000       0.000       0.000       0.000       0.000       0.000    
        2277.       2256.       2244.       2230.       2219.       2207.       2189.       2161.       2148.       2125.    
        2109.       2095.       2076.       2055.       2049.       2038.       2024.       2013.       2008.       2000.    
        1990.       1986.       1982.       1976.       1973.       1963.       1950.       1950.       1956.       1964.    
        1957.       1941.       1932.       1924.       1918.       1920.       1915.       1900.       1889.       1882.    
        1877.       1872.       1869.       1867.       1865.       1861.       1858.       1857.       1857.       1856.    
        1850.       1846.       1846.       1846.       1846.       1843.       1843.       1840.       1838.       1836.    
        1835.       1838.       1842.       1844.       1831.       1815.       0.000       0.000       0.000    
  39    0.000       0.000       0.000       0.000       0.000       0.000       0.000       2343.       2316.       2296.    
        2272.       2255.       2237.       2225.       2216.       2204.       2187.       2170.       2154.       2140.    
        2116.       2099.       2079.       2064.       2060.       2049.       2030.       2020.       2014.       2003.    
        1998.       1994.       1986.       1980.       1979.       1969.       1955.       1954.       1958.       1967.    
        1963.       1944.       1937.       1928.       1929.       1933.       1930.       1918.       1898.       1887.    
        1882.       1876.       1873.       1872.       1870.       1868.       1865.       1862.       1859.       1857.    
        1856.       1860.       1868.       1874.       1866.       1836.       1847.       1838.       1833.       1804.    
        1805.       1808.       1811.       1814.       1814.       1813.       0.000       0.000       0.000    
  40    0.000       0.000       0.000       0.000       0.000       0.000       2367.       2345.       2316.       2293.    
        2271.       2251.       2238.       2227.       2216.       2206.       2194.       2179.       2164.       2144.    
        2121.       2101.       2085.       2081.       2080.       2060.       2045.       2033.       2021.       2010.    
        2007.       1999.       1993.       1988.       1984.       1974.       1957.       1961.       1970.       1973.    
        1972.       1963.       1946.       1935.       1937.       1947.       1942.       1927.       1906.       1897.    
        1888.       1883.       1883.       1880.       1881.       1882.       1879.       1882.       1877.       1863.    
        1861.       1870.       1884.       1889.       1891.       1873.       1874.       1856.       1849.       1844.    
        1840.       1836.       1833.       1831.       1829.       1815.       0.000       0.000       0.000    
  41    0.000       0.000       0.000       0.000       0.000       2401.       2385.       2350.       2326.       2301.    
        2276.       2256.       2240.       2229.       2223.       2215.       2205.       2192.       2166.       2147.    
        2131.       2111.       2098.       2094.       2090.       2077.       2056.       2042.       2025.       2021.    
        2012.       2004.       1997.       1992.       1987.       1976.       1963.       1973.       1982.       1983.    
        1979.       1973.       1958.       1945.       1943.       1959.       1954.       1937.       1922.       1905.    
        1899.       1895.       1897.       1896.       1895.       1902.       1895.       1900.       1885.       1872.    
        1868.       1879.       1890.       1897.       1900.       1900.       1887.       1860.       1847.       1839.    
        1834.       1829.       1826.       1823.       1823.       0.000       0.000       0.000       0.000    
  42    0.000       0.000       0.000       0.000       0.000       2418.       2406.       2374.       2346.       2315.    
        2282.       2261.       2249.       2239.       2240.       2235.       2228.       2208.       2177.       2155.    
        2137.       2123.       2105.       2091.       2083.       2071.       2053.       2042.       2035.       2026.    
        2016.       2006.       2002.       1997.       1990.       1977.       1973.       1989.       1994.       1991.    
        1988.       1979.       1966.       1958.       1953.       1955.       1965.       1959.       1946.       1918.    
        1914.       1912.       1915.       1917.       1917.       1917.       1913.       1903.       1888.       1878.    
        1876.       1887.       1898.       1904.       1906.       1902.       1888.       1867.       1852.       1844.    
        1837.       1831.       1829.       1828.       1827.       0.000       0.000       0.000       0.000    
  43    0.000       0.000       0.000       0.000       0.000       2434.       2422.       2383.       2352.       2321.    
        2291.       2270.       2265.       2262.       2258.       2252.       2246.       2226.       2199.       2165.    
        2147.       2132.       2114.       2105.       2090.       2079.       2070.       2061.       2046.       2030.    
        2020.       2015.       2008.       2001.       1993.       1979.       1982.       1998.       2003.       1999.    
        1998.       1997.       1977.       1966.       1961.       1963.       1974.       1974.       1965.       1943.    
        1940.       1936.       1938.       1939.       1936.       1929.       1919.       1905.       1896.       1883.    
        1882.       1892.       1903.       1911.       1911.       1905.       1891.       1872.       1856.       1847.    
        1840.       1836.       1832.       1836.       1834.       0.000       0.000       0.000       0.000    
  44    0.000       0.000       0.000       0.000       0.000       2437.       2419.       2386.       2350.       2318.    
        2294.       2281.       2273.       2266.       2257.       2251.       2246.       2239.       2216.       2189.    
        2161.       2133.       2137.       2125.       2110.       2096.       2083.       2072.       2055.       2035.    
        2027.       2022.       2013.       2005.       1994.       1982.       1989.       2008.       2016.       2010.    
        2004.       2005.       2004.       1988.       1973.       1974.       1985.       1985.       1978.       1973.    
        1968.       1963.       1962.       1960.       1951.       1943.       1928.       1906.       1900.       1890.    
        1889.       1894.       1904.       1914.       1914.       1906.       1894.       1879.       1861.       1855.    
        1846.       1840.       1837.       1846.       1844.       0.000       0.000       0.000       0.000    
  45    0.000       0.000       0.000       2438.       2430.       2429.       2412.       2382.       2338.       2312.    
        2290.       2276.       2265.       2253.       2237.       2229.       2228.       2223.       2213.       2191.    
        2157.       2163.       2150.       2134.       2121.       2107.       2090.       2075.       2059.       2041.    
        2033.       2025.       2018.       2009.       1996.       1985.       1998.       2019.       2031.       2025.    
        2014.       2005.       2002.       1997.       1986.       1982.       1995.       1995.       1996.       1997.    
        1994.       1990.       1990.       1984.       1967.       1954.       1933.       1914.       1906.       1899.    
        1893.       1896.       1904.       1912.       1912.       1905.       1895.       1882.       1872.       1863.    
        1848.       1845.       1849.       1860.       1862.       0.000       0.000       0.000       0.000    
  46    0.000       0.000       0.000       2439.       2423.       2416.       2403.       2367.       2330.       2304.    
        2280.       2263.       2249.       2235.       2224.       2219.       2212.       2204.       2189.       2189.    
        2192.       2181.       2161.       2150.       2135.       2114.       2092.       2077.       2064.       2050.    
        2037.       2028.       2020.       2008.       1997.       1989.       2002.       2022.       2036.       2031.    
        2022.       2011.       2003.       1996.       1988.       1986.       1997.       2003.       2010.       2015.    
        2017.       2021.       2017.       2003.       1988.       1965.       1941.       1921.       1914.       1909.    
        1900.       1905.       1908.       1915.       1912.       1902.       1893.       1882.       1873.       1861.    
        1854.       1851.       1854.       1863.       1875.       0.000       0.000       0.000       0.000    
  47    0.000       0.000       0.000       2440.       2422.       2409.       2389.       2359.       2323.       2294.    
        2272.       2249.       2239.       2232.       2223.       2218.       2217.       2215.       2212.       2211.    
        2203.       2191.       2176.       2160.       2141.       2116.       2096.       2084.       2072.       2059.    
        2044.       2031.       2022.       2013.       2004.       1992.       1998.       2014.       2026.       2026.    
        2022.       2019.       2009.       1998.       1989.       1988.       1996.       2005.       2016.       2026.    
        2035.       2043.       2038.       2022.       2002.       1978.       1948.       1930.       1918.       1910.    
        1907.       1912.       1915.       1917.       1912.       1899.       1892.       1882.       1873.       1862.    
        1861.       1857.       1856.       1866.       1877.       0.000       0.000       0.000       0.000    
  48    0.000       0.000       0.000       2445.       2428.       2407.       2378.       2348.       2313.       2289.    
        2260.       2245.       2239.       2233.       2230.       2227.       2233.       2237.       2236.       2234.    
        2216.       2198.       2180.       2161.       2140.       2118.       2100.       2091.       2081.       2068.    
        2052.       2039.       2028.       2022.       2022.       2017.       2001.       2004.       2014.       2020.    
        2023.       2027.       2024.       2013.       2000.       1990.       1994.       2010.       2023.       2036.    
        2052.       2060.       2051.       2039.       2022.       1994.       1963.       1941.       1923.       1914.    
        1917.       1920.       1923.       1920.       1909.       1901.       1892.       1886.       1878.       1871.    
        1865.       1862.       1865.       1870.       1882.       1894.       0.000       0.000       0.000    
  49    0.000       0.000       0.000       2447.       2431.       2410.       2368.       2338.       2309.       2286.    
        2264.       2248.       2247.       2244.       2239.       2244.       2248.       2251.       2253.       2236.    
        2214.       2196.       2179.       2158.       2143.       2124.       2113.       2098.       2086.       2072.    
        2058.       2048.       2036.       2033.       2032.       2031.       2017.       2004.       2008.       2016.    
        2026.       2033.       2036.       2031.       2018.       2000.       1992.       2006.       2022.       2044.    
        2064.       2080.       2071.       2054.       2036.       2009.       1979.       1953.       1935.       1923.    
        1925.       1929.       1931.       1928.       1913.       1904.       1897.       1890.       1884.       1876.    
        1873.       1869.       1874.       1881.       1888.       1896.       0.000       0.000       0.000    
  50    0.000       0.000       0.000       2455.       2438.       2402.       2365.       2334.       2299.       2284.    
        2275.       2258.       2262.       2260.       2260.       2265.       2264.       2256.       2241.       2223.    
        2206.       2190.       2175.       2157.       2144.       2131.       2120.       2109.       2094.       2078.    
        2063.       2054.       2045.       2040.       2037.       2033.       2021.       2010.       2008.       2017.    
        2028.       2037.       2044.       2045.       2039.       2015.       2000.       2001.       2016.       2041.    
        2069.       2089.       2089.       2073.       2050.       2027.       1995.       1971.       1951.       1936.    
        1931.       1937.       1945.       1942.       1925.       1911.       1902.       1895.       1888.       1884.    
        1880.       1876.       1883.       1889.       1895.       1902.       0.000       0.000       0.000    
  51    0.000       0.000       0.000       2455.       2431.       2390.       2360.       2328.       2291.       2280.    
        2270.       2275.       2286.       2284.       2289.       2289.       2273.       2246.       2227.       2213.    
        2201.       2190.       2177.       2164.       2155.       2139.       2123.       2111.       2100.       2084.    
        2070.       2059.       2050.       2044.       2038.       2032.       2020.       2012.       2011.       2017.    
        2028.       2039.       2047.       2052.       2051.       2033.       2008.       2000.       2005.       2032.    
        2062.       2088.       2105.       2090.       2064.       2039.       2011.       1985.       1964.       1954.    
        1940.       1944.       1953.       1956.       1943.       1922.       1907.       1901.       1895.       1897.    
        1892.       1881.       1888.       1897.       1903.       1909.       0.000       0.000       0.000    
  52    0.000       0.000       2433.       2448.       2419.       2378.       2348.       2321.       2294.       2280.    
        2286.       2294.       2303.       2309.       2311.       2305.       2291.       2265.       2247.       2226.    
        2208.       2196.       2186.       2173.       2162.       2147.       2128.       2113.       2100.       2089.    
        2077.       2063.       2053.       2045.       2037.       2029.       2020.       2012.       2013.       2017.    
        2027.       2038.       2049.       2055.       2060.       2052.       2029.       2008.       2004.       2019.    
        2052.       2084.       2104.       2101.       2081.       2054.       2021.       1997.       1977.       1964.    
        1954.       1955.       1960.       1962.       1957.       1936.       1917.       1909.       1910.       1910.    
        1906.       1891.       1893.       1907.       1914.       1920.       0.000       0.000       0.000    
  53    0.000       0.000       2439.       2447.       2409.       2374.       2345.       2312.       2298.       2292.    
        2302.       2309.       2321.       2327.       2328.       2325.       2315.       2295.       2267.       2246.    
        2227.       2208.       2196.       2185.       2176.       2160.       2138.       2119.       2101.       2088.    
        2077.       2066.       2055.       2046.       2037.       2028.       2022.       2015.       2015.       2021.    
        2031.       2045.       2055.       2066.       2072.       2071.       2050.       2024.       2017.       2019.    
        2047.       2076.       2102.       2108.       2089.       2060.       2033.       2007.       1986.       1973.    
        1968.       1966.       1966.       1966.       1959.       1942.       1926.       1919.       1920.       1922.    
        1919.       1908.       1900.       1916.       1933.       1936.       1945.       0.000       0.000    
  54    0.000       0.000       2442.       2439.       2396.       2369.       2352.       2335.       2312.       2312.    
        2316.       2323.       2335.       2340.       2342.       2348.       2343.       2316.       2292.       2271.    
        2244.       2224.       2210.       2198.       2189.       2172.       2148.       2128.       2108.       2089.    
        2075.       2066.       2054.       2045.       2036.       2028.       2024.       2018.       2020.       2030.    
        2044.       2056.       2073.       2085.       2096.       2096.       2071.       2044.       2035.       2027.    
        2042.       2073.       2099.       2111.       2098.       2067.       2042.       2020.       1997.       1983.    
        1978.       1979.       1976.       1973.       1969.       1951.       1936.       1929.       1933.       1936.    
        1937.       1925.       1912.       1920.       1936.       1944.       1949.       0.000       0.000    
  55    0.000       2449.       2441.       2440.       2416.       2391.       2366.       2348.       2324.       2330.    
        2328.       2339.       2347.       2352.       2356.       2362.       2364.       2336.       2311.       2290.    
        2263.       2240.       2222.       2208.       2196.       2180.       2158.       2137.       2115.       2092.    
        2077.       2065.       2054.       2044.       2036.       2029.       2026.       2021.       2027.       2040.    
        2055.       2072.       2090.       2106.       2118.       2119.       2088.       2063.       2049.       2042.    
        2048.       2070.       2095.       2115.       2108.       2077.       2052.       2036.       2017.       1995.    
        1991.       1989.       1987.       1981.       1974.       1961.       1950.       1941.       1945.       1950.    
        1951.       1949.       1924.       1931.       1941.       1948.       1955.       0.000       0.000    
  56    0.000       2444.       2430.       2428.       2418.       2408.       2387.       2358.       2349.       2339.    
        2336.       2352.       2361.       2362.       2367.       2375.       2376.       2354.       2333.       2311.    
        2288.       2261.       2237.       2220.       2203.       2189.       2168.       2146.       2121.       2095.    
        2082.       2069.       2055.       2044.       2038.       2033.       2029.       2026.       2033.       2047.    
        2065.       2084.       2105.       2122.       2137.       2137.       2102.       2081.       2065.       2058.    
        2053.       2066.       2094.       2117.       2115.       2085.       2065.       2047.       2029.       2011.    
        2001.       2002.       2001.       1991.       1979.       1969.       1959.       1953.       1955.       1963.    
        1968.       1963.       1935.       1940.       1952.       1958.       1959.       0.000       0.000    
  57    2473.       2434.       2404.       2417.       2420.       2415.       2390.       2391.       2364.       2350.    
        2365.       2376.       2377.       2375.       2381.       2388.       2389.       2374.       2357.       2333.    
        2306.       2284.       2252.       2233.       2213.       2196.       2178.       2156.       2126.       2104.    
        2086.       2070.       2057.       2046.       2039.       2034.       2030.       2031.       2038.       2050.    
        2065.       2085.       2109.       2124.       2139.       2146.       2125.       2097.       2081.       2072.    
        2064.       2072.       2094.       2121.       2128.       2098.       2078.       2060.       2044.       2029.    
        2015.       2020.       2018.       2005.       1989.       1979.       1971.       1963.       1964.       1971.    
        1978.       1973.       1946.       1953.       1958.       1962.       1964.       0.000       0.000    
  58    2476.       2432.       2408.       2418.       2408.       2400.       2413.       2409.       2375.       2377.    
        2387.       2396.       2397.       2388.       2393.       2399.       2403.       2390.       2368.       2344.    
        2318.       2296.       2272.       2246.       2226.       2206.       2188.       2163.       2135.       2110.    
        2093.       2075.       2061.       2050.       2041.       2036.       2033.       2033.       2039.       2048.    
        2061.       2080.       2099.       2116.       2137.       2149.       2154.       2120.       2101.       2089.    
        2081.       2081.       2098.       2125.       2137.       2113.       2093.       2076.       2060.       2043.    
        2032.       2036.       2033.       2021.       2005.       1992.       1982.       1976.       1976.       1981.    
        1978.       1970.       1957.       1964.       1966.       1967.       1969.       0.000       0.000    
  59    2483.       2446.       2419.       2425.       2414.       2406.       2431.       2429.       2417.       2403.    
        2409.       2416.       2413.       2407.       2407.       2409.       2417.       2402.       2379.       2355.    
        2325.       2305.       2283.       2256.       2235.       2216.       2194.       2168.       2140.       2118.    
        2097.       2081.       2064.       2053.       2043.       2038.       2034.       2035.       2041.       2048.    
        2061.       2078.       2098.       2116.       2135.       2153.       2160.       2146.       2119.       2107.    
        2098.       2095.       2102.       2129.       2143.       2128.       2108.       2094.       2079.       2062.    
        2049.       2053.       2047.       2035.       2019.       2002.       1996.       1988.       1990.       1989.    
        1979.       1970.       1968.       1972.       1971.       1973.       1979.       1986.       0.000    
  60    0.000       2467.       2455.       2458.       2448.       2433.       2458.       2461.       2456.       2443.    
        2443.       2436.       2424.       0.000       0.000       0.000       2426.       2412.       2389.       2362.    
        2336.       2311.       2287.       2271.       2255.       2229.       2202.       2173.       2150.       2125.    
        2100.       2086.       2070.       2056.       2047.       2040.       2036.       2037.       2041.       2049.    
        2060.       2079.       2098.       2115.       2138.       2161.       2171.       2163.       2142.       2121.    
        2112.       2109.       2108.       2128.       2145.       2139.       2124.       2111.       2094.       2081.    
        2071.       2077.       2071.       2053.       2035.       2018.       2011.       2005.       2003.       1994.    
        1981.       1974.       1976.       1979.       1978.       1982.       1990.       1995.       1998.    
  61    0.000       0.000       2484.       2504.       2485.       2482.       2481.       2477.       2486.       2488.    
        2471.       0.000       0.000       0.000       0.000       0.000       0.000       2419.       2392.       2367.    
        2341.       2313.       2291.       2273.       2265.       2233.       2206.       2180.       2156.       2128.    
        2108.       2094.       2073.       2060.       2051.       2042.       2039.       2038.       2042.       2049.    
        2061.       2077.       2097.       2117.       2139.       2165.       2186.       2182.       2159.       2139.    
        2124.       2118.       2119.       2127.       2145.       2149.       2141.       2128.       2111.       2098.    
        2088.       2094.       2094.       2072.       2053.       2037.       2025.       2016.       2010.       1995.    
        1986.       1980.       1984.       1986.       1986.       1993.       1999.       2002.       2005.    
  62    0.000       0.000       0.000       2509.       0.000       0.000       0.000       0.000       0.000       0.000    
        0.000       0.000       0.000       0.000       0.000       0.000       0.000       0.000       0.000       2370.    
        2344.       2316.       2290.       2275.       2260.       2232.       2211.       2186.       2159.       2134.    
        2113.       2096.       2078.       2064.       2054.       2046.       2042.       2040.       2042.       2050.    
        2061.       2076.       2097.       2115.       2136.       2163.       2189.       2196.       2184.       2156.    
        2140.       2130.       2129.       2131.       2143.       2157.       2157.       2146.       2132.       2118.    
        2102.       2112.       2109.       2093.       2072.       2055.       2041.       2025.       2010.       1999.    
        1990.       1989.       1992.       1991.       1995.       2000.       2006.       2010.       2013.    
  63    0.000       0.000       0.000       0.000       0.000       0.000       0.000       0.000       0.000       0.000    
        0.000       0.000       0.000       0.000       0.000       0.000       0.000       0.000       0.000       2372.    
        2347.       2312.       2290.       2274.       2260.       2235.       2214.       2190.       2166.       2136.    
        2116.       2101.       2086.       2067.       2056.       2049.       2045.       2042.       2045.       2051.    
        2060.       2075.       2094.       2112.       2135.       2155.       2181.       2204.       2201.       2181.    
        2154.       2144.       2139.       2138.       2148.       2161.       2172.       2166.       2155.       2147.    
        2135.       2133.       2130.       2112.       2094.       2070.       2050.       2034.       2018.       2003.    
        1995.       1996.       1997.       1998.       2001.       2007.       2012.       2017.       2021.    
  64    0.000       0.000       0.000       0.000       0.000       0.000       0.000       0.000       0.000       0.000    
        0.000       0.000       0.000       0.000       0.000       0.000       0.000       0.000       0.000       0.000    
        0.000       0.000       0.000       0.000       2262.       2242.       2220.       2197.       2174.       2142.    
        2123.       2104.       2091.       2076.       2059.       2051.       2047.       2045.       2046.       2050.    
        2060.       2072.       2091.       2109.       2130.       2153.       2177.       2199.       2211.       2203.    
        2180.       2164.       2159.       2151.       2153.       2164.       2177.       2185.       2181.       2170.    
        2161.       2157.       2148.       2134.       2113.       2084.       2056.       2038.       2022.       2008.    
        2002.       2002.       2003.       2003.       2006.       2011.       2018.       2025.       2030.    
  65    0.000       0.000       0.000       0.000       0.000       0.000       0.000       0.000       0.000       0.000    
        0.000       0.000       0.000       0.000       0.000       0.000       0.000       0.000       0.000       0.000    
        0.000       0.000       0.000       0.000       0.000       0.000       0.000       0.000       0.000       0.000    
        0.000       0.000       0.000       2080.       2067.       2054.       2049.       2047.       2047.       2051.    
        2058.       2071.       2086.       2103.       2125.       0.000       0.000       0.000       0.000       2214.    
        2203.       2193.       2188.       2172.       2160.       2165.       2178.       2193.       2199.       2191.    
        2184.       2175.       2161.       2145.       2123.       2094.       2064.       2040.       2027.       2014.    
        2011.       2009.       2010.       2010.       2010.       2016.       2022.       2029.       2034.    
  66    0.000       0.000       0.000       0.000       0.000       0.000       0.000       0.000       0.000       0.000    
        0.000       0.000       0.000       0.000       0.000       0.000       0.000       0.000       0.000       0.000    
        0.000       0.000       0.000       0.000       0.000       0.000       0.000       0.000       0.000       0.000    
        0.000       0.000       0.000       0.000       0.000       2059.       2053.       0.000       0.000       0.000    
        0.000       0.000       0.000       0.000       0.000       0.000       0.000       0.000       0.000       0.000    
        2211.       2208.       2207.       2190.       2175.       2171.       2181.       2198.       2212.       2209.    
        2201.       2187.       2172.       2151.       2129.       2098.       2067.       2046.       2034.       2026.    
        2024.       2019.       2018.       2015.       2013.       2017.       2024.       2030.       2038.    
  67    0.000       0.000       0.000       0.000       0.000       0.000       0.000       0.000       0.000       0.000    
        0.000       0.000       0.000       0.000       0.000       0.000       0.000       0.000       0.000       0.000    
        0.000       0.000       0.000       0.000       0.000       0.000       0.000       0.000       0.000       0.000    
        0.000       0.000       0.000       0.000       0.000       0.000       0.000       0.000       0.000       0.000    
        0.000       0.000       0.000       0.000       0.000       0.000       0.000       0.000       0.000       0.000    
        0.000       0.000       2215.       2205.       2187.       2179.       2184.       2198.       2217.       2222.    
        2213.       2200.       2175.       2155.       2133.       2103.       2076.       2051.       2042.       2037.    
        2029.       0.000       0.000       0.000       0.000       0.000       0.000       0.000       0.000    
  68    0.000       0.000       0.000       0.000       0.000       0.000       0.000       0.000       0.000       0.000    
        0.000       0.000       0.000       0.000       0.000       0.000       0.000       0.000       0.000       0.000    
        0.000       0.000       0.000       0.000       0.000       0.000       0.000       0.000       0.000       0.000    
        0.000       0.000       0.000       0.000       0.000       0.000       0.000       0.000       0.000       0.000    
        0.000       0.000       0.000       0.000       0.000       0.000       0.000       0.000       0.000       0.000    
        0.000       0.000       0.000       2213.       2197.       2187.       2184.       2194.       2210.       2230.    
        2219.       2205.       2183.       2161.       2139.       2109.       2083.       2062.       0.000       0.000    
        0.000       0.000       0.000       0.000       0.000       0.000       0.000       0.000       0.000    
  69    0.000       0.000       0.000       0.000       0.000       0.000       0.000       0.000       0.000       0.000    
        0.000       0.000       0.000       0.000       0.000       0.000       0.000       0.000       0.000       0.000    
        0.000       0.000       0.000       0.000       0.000       0.000       0.000       0.000       0.000       0.000    
        0.000       0.000       0.000       0.000       0.000       0.000       0.000       0.000       0.000       0.000    
        0.000       0.000       0.000       0.000       0.000       0.000       0.000       0.000       0.000       0.000    
        0.000       0.000       0.000       0.000       0.000       0.000       0.000       0.000       0.000       0.000    
        2232.       2214.       2193.       2171.       2148.       2120.       2095.       0.000       0.000       0.000    
        0.000       0.000       0.000       0.000       0.000       0.000       0.000       0.000       0.000    
  70    0.000       0.000       0.000       0.000       0.000       0.000       0.000       0.000       0.000       0.000    
        0.000       0.000       0.000       0.000       0.000       0.000       0.000       0.000       0.000       0.000    
        0.000       0.000       0.000       0.000       0.000       0.000       0.000       0.000       0.000       0.000    
        0.000       0.000       0.000       0.000       0.000       0.000       0.000       0.000       0.000       0.000    
        0.000       0.000       0.000       0.000       0.000       0.000       0.000       0.000       0.000       0.000    
        0.000       0.000       0.000       0.000       0.000       0.000       0.000       0.000       0.000       0.000    
        0.000       2228.       2207.       2183.       2161.       2130.       0.000       0.000       0.000       0.000    
        0.000       0.000       0.000       0.000       0.000       0.000       0.000       0.000       0.000    
  71    0.000       0.000       0.000       0.000       0.000       0.000       0.000       0.000       0.000       0.000    
        0.000       0.000       0.000       0.000       0.000       0.000       0.000       0.000       0.000       0.000    
        0.000       0.000       0.000       0.000       0.000       0.000       0.000       0.000       0.000       0.000    
        0.000       0.000       0.000       0.000       0.000       0.000       0.000       0.000       0.000       0.000    
        0.000       0.000       0.000       0.000       0.000       0.000       0.000       0.000       0.000       0.000    
        0.000       0.000       0.000       0.000       0.000       0.000       0.000       0.000       0.000       0.000    
        0.000       0.000       2222.       2196.       0.000       0.000       0.000       0.000       0.000       0.000    
        0.000       0.000       0.000       0.000       0.000       0.000       0.000       0.000       0.000    


 STRESS PERIOD     LENGTH       TIME STEPS     MULTIPLIER FOR DELT    SS FLAG
 ----------------------------------------------------------------------------
        1         1.000000          1                    1.000         SS
        2         5844.000       5844                    1.000         TR

 COMBINED STEADY-STATE AND TRANSIENT SIMULATION



 
 #Sagehen-GRID Simulation -- Example problem for GSFLOW                          
 THE FREE FORMAT OPTION HAS BEEN SELECTED

           BOUNDARY ARRAY =              0 FOR LAYER   1



                     BOUNDARY ARRAY FOR LAYER   2
 READING ON UNIT    8 WITH FORMAT: (FREE)              

         1    2    3    4    5    6    7    8    9   10   11   12   13   14   15   16   17   18   19   20   21   22   23   24   25
        26   27   28   29   30   31   32   33   34   35   36   37   38   39   40   41   42   43   44   45   46   47   48   49   50
        51   52   53   54   55   56   57   58   59   60   61   62   63   64   65   66   67   68   69   70   71   72   73   74   75
        76   77   78   79
 .................................................................................................................................
   1     0    0    0    0    0    0    0    0    0    0    0    0    0    0    0    0    0    0    0    0    0    0    0    0    0
         0    0    0    0    0    0    0    0    0    0    0    0    0    0    0    0    0    0    0    0    0    0    0    0    0
         0    1    1    0    0    0    0    0    0    0    0    0    0    0    0    0    0    0    0    0    0    0    0    0    0
         0    0    0    0
   2     0    0    0    0    0    0    0    0    0    0    0    0    0    0    0    0    0    0    0    0    0    0    0    0    0
         0    0    0    0    0    0    0    0    0    0    0    0    0    0    0    0    0    0    0    0    0    0    0    0    0
         0    1    1    1    0    0    0    0    0    0    0    0    0    0    0    0    0    0    0    0    0    0    0    0    0
         0    0    0    0
   3     0    0    0    0    0    0    0    0    0    0    0    0    0    0    0    0    0    0    0    0    0    0    0    0    0
         0    0    0    0    0    0    0    0    0    0    0    0    0    0    0    0    0    0    0    0    0    0    0    0    0
         0    1    1    1    0    0    0    0    0    0    0    0    0    0    0    0    0    0    0    0    0    0    0    0    0
         0    0    0    0
   4     0    0    0    0    0    0    0    0    0    0    0    0    0    0    0    0    0    0    0    0    0    0    0    0    0
         0    0    0    0    0    0    0    0    0    0    0    0    0    0    0    0    0    0    0    0    0    0    0    0    0
         0    1    1    1    1    0    0    0    0    0    0    0    0    0    0    0    0    0    0    0    0    0    0    0    0
         0    0    0    0
   5     0    0    0    0    0    0    0    0    0    0    0    0    0    0    0    0    0    0    0    0    0    0    0    0    0
         0    0    0    0    0    0    0    0    0    0    0    0    0    0    0    0    0    0    0    0    0    0    0    0    0
         0    1    1    1    1    1    1    0    0    0    0    0    0    0    0    0    0    0    0    0    0    0    0    0    0
         0    0    0    0
   6     0    0    0    0    0    0    0    0    0    0    0    0    0    0    0    0    0    0    0    0    0    0    0    0    0
         0    0    0    0    0    0    0    0    0    0    0    0    0    0    0    0    0    0    0    0    0    0    0    0    0
         0    1    1    1    1    1    1    1    1    0    0    0    0    1    1    0    0    0    0    0    0    0    0    0    0
         0    0    0    0
   7     0    0    0    0    0    0    0    0    0    0    0    0    0    0    0    0    0    0    0    0    0    0    0    0    0
         0    0    0    0    0    0    0    0    0    0    0    0    0    0    0    0    0    0    0    0    0    0    0    0    0
         0    1    1    1    1    1    1    1    1    1    1    1    1    1    1    1    0    0    0    0    0    0    0    0    0
         0    0    0    0
   8     0    0    0    0    0    0    0    0    0    0    0    0    0    0    0    0    0    0    0    0    0    0    0    0    0
         0    0    0    0    0    0    0    0    0    0    0    0    0    0    0    0    0    0    0    0    0    0    0    0    0
         0    1    1    1    1    1    1    1    1    1    1    1    1    1    1    1    1    1    0    0    0    0    0    0    0
         0    0    0    0
   9     0    0    0    0    0    0    0    0    0    0    0    0    0    0    0    0    0    0    0    0    0    0    0    0    0
         0    0    0    0    0    0    0    0    0    0    0    0    0    0    0    0    0    0    0    0    0    0    0    0    0
         1    1    1    1    1    1    1    1    1    1    1    1    1    1    1    1    1    1    1    0    0    0    0    0    0
         0    0    0    0
  10     0    0    0    0    0    0    0    0    0    0    0    0    0    0    0    0    0    0    0    0    0    0    0    0    0
         0    0    0    0    0    0    0    0    0    0    0    0    0    0    0    0    0    0    0    0    0    0    0    0    1
         1    1    1    1    1    1    1    1    1    1    1    1    1    1    1    1    1    1    1    1    0    0    0    0    0
         0    0    0    0
  11     0    0    0    0    0    0    0    0    0    0    0    0    0    0    0    0    0    0    0    0    0    0    0    0    0
         0    0    0    0    0    0    0    0    0    0    0    0    0    0    0    0    0    0    0    0    0    0    0    1    1
         1    1    1    1    1    1    1    1    1    1    1    1    1    1    1    1    1    1    1    1    1    0    0    0    0
         0    0    0    0
  12     0    0    0    0    0    0    0    0    0    0    0    0    0    0    0    0    0    0    0    0    0    0    0    0    0
         0    0    0    0    0    0    0    0    0    0    0    0    0    0    0    0    1    1    0    0    0    0    1    1    1
         1    1    1    1    1    1    1    1    1    1    1    1    1    1    1    1    1    1    1    1    1    0    0    0    0
         0    0    0    0
  13     0    0    0    0    0    0    0    0    0    0    0    0    0    0    0    0    0    0    0    0    0    0    0    0    0
         0    0    0    0    0    0    0    0    0    0    0    0    0    1    1    1    1    1    1    1    1    1    1    1    1
         1    1    1    1    1    1    1    1    1    1    1    1    1    1    1    1    1    1    1    1    1    1    0    0    0
         0    0    0    0
  14     0    0    0    0    0    0    0    0    0    0    0    0    0    0    0    0    0    0    0    0    0    0    0    0    0
         0    0    0    0    0    0    0    0    0    0    0    0    0    1    1    1    1    1    1    1    1    1    1    1    1
         1    1    1    1    1    1    1    1    1    1    1    1    1    1    1    1    1    1    1    1    1    1    1    0    0
         0    0    0    0
  15     0    0    0    0    0    0    0    0    0    0    0    0    0    0    0    0    0    0    0    0    0    0    0    0    0
         0    0    0    0    0    0    0    0    0    0    0    0    1    1    1    1    1    1    1    1    1    1    1    1    1
         1    1    1    1    1    1    1    1    1    1    1    1    1    1    1    1    1    1    1    1    1    1    1    0    0
         0    0    0    0
  16     0    0    0    0    0    0    0    0    0    0    0    0    0    0    0    0    0    0    0    0    0    0    0    0    0
         0    0    0    0    0    0    0    0    0    0    0    1    1    1    1    1    1    1    1    1    1    1    1    1    1
         1    1    1    1    1    1    1    1    1    1    1    1    1    1    1    1    1    1    1    1    1    1    1    1    0
         0    0    0    0
  17     0    0    0    0    0    0    0    0    0    0    0    0    0    0    0    0    0    0    0    0    0    0    0    0    0
         0    0    0    0    0    0    0    0    0    0    1    1    1    1    1    1    1    1    1    1    1    1    1    1    1
         1    1    1    1    1    1    1    1    1    1    1    1    1    1    1    1    1    1    1    1    1    1    1    1    0
         0    0    0    0
  18     0    0    0    0    0    0    0    0    0    0    0    0    0    0    0    0    0    0    0    0    0    0    0    0    0
         0    0    0    0    0    0    0    0    0    1    1    1    1    1    1    1    1    1    1    1    1    1    1    1    1
         1    1    1    1    1    1    1    1    1    1    1    1    1    1    1    1    1    1    1    1    1    1    1    1    0
         0    0    0    0
  19     0    0    0    0    0    0    0    0    0    0    0    0    0    0    0    0    0    0    0    0    0    0    0    0    0
         0    0    0    0    0    0    0    0    1    1    1    1    1    1    1    1    1    1    1    1    1    1    1    1    1
         1    1    1    1    1    1    1    1    1    1    1    1    1    1    1    1    1    1    1    1    1    1    1    1    0
         0    0    0    0
  20     0    0    0    0    0    0    0    0    0    0    0    0    0    0    0    0    0    0    0    0    0    0    0    0    0
         0    0    0    0    0    0    0    0    1    1    1    1    1    1    1    1    1    1    1    1    1    1    1    1    1
         1    1    1    1    1    1    1    1    1    1    1    1    1    1    1    1    1    1    1    1    1    1    1    1    0
         0    0    0    0
  21     0    0    0    0    0    0    0    0    0    0    0    0    0    0    0    0    0    0    0    0    0    0    0    0    0
         0    0    0    0    0    0    0    1    1    1    1    1    1    1    1    1    1    1    1    1    1    1    1    1    1
         1    1    1    1    1    1    1    1    1    1    1    1    1    1    1    1    1    1    1    1    1    1    1    1    1
         0    0    0    0
  22     0    0    0    0    0    0    0    0    0    0    0    0    0    0    0    0    0    0    0    0    0    0    0    0    0
         0    0    0    0    0    0    0    1    1    1    1    1    1    1    1    1    1    1    1    1    1    1    1    1    1
         1    1    1    1    1    1    1    1    1    1    1    1    1    1    1    1    1    1    1    1    1    1    1    1    0
         0    0    0    0
  23     0    0    0    0    0    0    0    0    0    0    0    0    0    0    0    0    0    0    0    0    0    0    0    0    0
         0    0    0    0    0    0    1    1    1    1    1    1    1    1    1    1    1    1    1    1    1    1    1    1    1
         1    1    1    1    1    1    1    1    1    1    1    1    1    1    1    1    1    1    1    1    1    0    0    0    0
         0    0    0    0
  24     0    0    0    0    0    0    0    0    0    0    0    0    0    0    0    0    0    0    0    0    0    0    0    0    0
         0    0    0    1    1    1    1    1    1    1    1    1    1    1    1    1    1    1    1    1    1    1    1    1    1
         1    1    1    1    1    1    1    1    1    1    1    1    1    1    1    1    1    1    1    1    1    0    0    0    0
         0    0    0    0
  25     0    0    0    0    0    0    0    0    0    0    0    0    0    0    0    0    0    0    0    0    0    0    0    0    0
         0    0    1    1    1    1    1    1    1    1    1    1    1    1    1    1    1    1    1    1    1    1    1    1    1
         1    1    1    1    1    1    1    1    1    1    1    1    1    1    1    1    1    1    1    1    1    0    0    0    0
         0    0    0    0
  26     0    0    0    0    0    0    0    0    0    0    0    0    0    0    0    0    0    0    0    0    0    0    0    0    0
         1    1    1    1    1    1    1    1    1    1    1    1    1    1    1    1    1    1    1    1    1    1    1    1    1
         1    1    1    1    1    1    1    1    1    1    1    1    1    1    1    1    1    1    1    1    1    0    0    0    0
         0    0    0    0
  27     0    0    0    0    0    0    0    0    0    0    0    0    0    0    0    0    0    0    0    0    0    0    0    0    1
         1    1    1    1    1    1    1    1    1    1    1    1    1    1    1    1    1    1    1    1    1    1    1    1    1
         1    1    1    1    1    1    1    1    1    1    1    1    1    1    1    1    1    1    1    1    1    0    0    0    0
         0    0    0    0
  28     0    0    0    0    0    0    0    0    0    0    0    0    0    0    0    0    0    0    0    0    0    0    0    1    1
         1    1    1    1    1    1    1    1    1    1    1    1    1    1    1    1    1    1    1    1    1    1    1    1    1
         1    1    1    1    1    1    1    1    1    1    1    1    1    1    1    1    1    1    1    1    1    1    0    0    0
         0    0    0    0
  29     0    0    0    0    0    0    0    0    0    0    0    0    0    0    0    0    0    0    0    0    0    1    1    1    1
         1    1    1    1    1    1    1    1    1    1    1    1    1    1    1    1    1    1    1    1    1    1    1    1    1
         1    1    1    1    1    1    1    1    1    1    1    1    1    1    1    1    1    1    1    1    1    1    0    0    0
         0    0    0    0
  30     0    0    0    0    0    0    0    0    0    0    0    0    0    0    0    0    0    0    0    1    1    1    1    1    1
         1    1    1    1    1    1    1    1    1    1    1    1    1    1    1    1    1    1    1    1    1    1    1    1    1
         1    1    1    1    1    1    1    1    1    1    1    1    1    1    1    1    1    1    1    1    1    1    0    0    0
         0    0    0    0
  31     0    0    0    0    0    0    0    0    0    0    0    0    0    0    0    0    0    0    1    1    1    1    1    1    1
         1    1    1    1    1    1    1    1    1    1    1    1    1    1    1    1    1    1    1    1    1    1    1    1    1
         1    1    1    1    1    1    1    1    1    1    1    1    1    1    1    1    1    1    1    1    1    1    0    0    0
         0    0    0    0
  32     0    0    0    0    0    0    0    0    0    0    0    0    0    0    0    0    1    1    1    1    1    1    1    1    1
         1    1    1    1    1    1    1    1    1    1    1    1    1    1    1    1    1    1    1    1    1    1    1    1    1
         1    1    1    1    1    1    1    1    1    1    1    1    1    1    1    1    1    1    1    1    1    1    0    0    0
         0    0    0    0
  33     0    0    0    0    0    0    0    0    0    0    0    0    0    0    0    1    1    1    1    1    1    1    1    1    1
         1    1    1    1    1    1    1    1    1    1    1    1    1    1    1    1    1    1    1    1    1    1    1    1    1
         1    1    1    1    1    1    1    1    1    1    1    1    1    1    1    1    1    1    1    1    1    1    1    0    0
         0    0    0    0
  34     0    0    0    0    0    0    0    0    0    0    0    0    0    0    1    1    1    1    1    1    1    1    1    1    1
         1    1    1    1    1    1    1    1    1    1    1    1    1    1    1    1    1    1    1    1    1    1    1    1    1
         1    1    1    1    1    1    1    1    1    1    1    1    1    1    1    1    1    1    1    1    1    1    1    0    0
         0    0    0    0
  35     0    0    0    0    0    0    0    0    0    0    0    0    0    1    1    1    1    1    1    1    1    1    1    1    1
         1    1    1    1    1    1    1    1    1    1    1    1    1    1    1    1    1    1    1    1    1    1    1    1    1
         1    1    1    1    1    1    1    1    1    1    1    1    1    1    1    1    1    1    1    1    1    1    1    1    0
         0    0    0    0
  36     0    0    0    0    0    0    0    0    0    0    0    0    0    1    1    1    1    1    1    1    1    1    1    1    1
         1    1    1    1    1    1    1    1    1    1    1    1    1    1    1    1    1    1    1    1    1    1    1    1    1
         1    1    1    1    1    1    1    1    1    1    1    1    1    1    1    1    1    1    1    1    1    1    1    1    1
         0    0    0    0
  37     0    0    0    0    0    0    0    0    0    0    0    0    1    1    1    1    1    1    1    1    1    1    1    1    1
         1    1    1    1    1    1    1    1    1    1    1    1    1    1    1    1    1    1    1    1    1    1    1    1    1
         1    1    1    1    1    1    1    1    1    1    1    1    1    1    1    1    1    1    1    1    1    1    1    1    1
         0    0    0    0
  38     0    0    0    0    0    0    0    0    0    0    1    1    1    1    1    1    1    1    1    1    1    1    1    1    1
         1    1    1    1    1    1    1    1    1    1    1    1    1    1    1    1    1    1    1    1    1    1    1    1    1
         1    1    1    1    1    1    1    1    1    1    1    1    1    1    1    1    1    1    1    1    1    1    1    1    1
         1    0    0    0
  39     0    0    0    0    0    0    0    1    1    1    1    1    1    1    1    1    1    1    1    1    1    1    1    1    1
         1    1    1    1    1    1    1    1    1    1    1    1    1    1    1    1    1    1    1    1    1    1    1    1    1
         1    1    1    1    1    1    1    1    1    1    1    1    1    1    1    1    1    1    1    1    1    1    1    1    1
        -1    0    0    0
  40     0    0    0    0    0    0    1    1    1    1    1    1    1    1    1    1    1    1    1    1    1    1    1    1    1
         1    1    1    1    1    1    1    1    1    1    1    1    1    1    1    1    1    1    1    1    1    1    1    1    1
         1    1    1    1    1    1    1    1    1    1    1    1    1    1    1    1    1    1    1    1    1    1    1    1    1
        -1    0    0    0
  41     0    0    0    0    0    1    1    1    1    1    1    1    1    1    1    1    1    1    1    1    1    1    1    1    1
         1    1    1    1    1    1    1    1    1    1    1    1    1    1    1    1    1    1    1    1    1    1    1    1    1
         1    1    1    1    1    1    1    1    1    1    1    1    1    1    1    1    1    1    1    1    1    1    1    1    1
         0    0    0    0
  42     0    0    0    0    0    1    1    1    1    1    1    1    1    1    1    1    1    1    1    1    1    1    1    1    1
         1    1    1    1    1    1    1    1    1    1    1    1    1    1    1    1    1    1    1    1    1    1    1    1    1
         1    1    1    1    1    1    1    1    1    1    1    1    1    1    1    1    1    1    1    1    1    1    1    1    1
         0    0    0    0
  43     0    0    0    0    0    1    1    1    1    1    1    1    1    1    1    1    1    1    1    1    1    1    1    1    1
         1    1    1    1    1    1    1    1    1    1    1    1    1    1    1    1    1    1    1    1    1    1    1    1    1
         1    1    1    1    1    1    1    1    1    1    1    1    1    1    1    1    1    1    1    1    1    1    1    1    1
         0    0    0    0
  44     0    0    0    0    0    1    1    1    1    1    1    1    1    1    1    1    1    1    1    1    1    1    1    1    1
         1    1    1    1    1    1    1    1    1    1    1    1    1    1    1    1    1    1    1    1    1    1    1    1    1
         1    1    1    1    1    1    1    1    1    1    1    1    1    1    1    1    1    1    1    1    1    1    1    1    1
         0    0    0    0
  45     0    0    0    1    1    1    1    1    1    1    1    1    1    1    1    1    1    1    1    1    1    1    1    1    1
         1    1    1    1    1    1    1    1    1    1    1    1    1    1    1    1    1    1    1    1    1    1    1    1    1
         1    1    1    1    1    1    1    1    1    1    1    1    1    1    1    1    1    1    1    1    1    1    1    1    1
         0    0    0    0
  46     0    0    0    1    1    1    1    1    1    1    1    1    1    1    1    1    1    1    1    1    1    1    1    1    1
         1    1    1    1    1    1    1    1    1    1    1    1    1    1    1    1    1    1    1    1    1    1    1    1    1
         1    1    1    1    1    1    1    1    1    1    1    1    1    1    1    1    1    1    1    1    1    1    1    1    1
         0    0    0    0
  47     0    0    0    1    1    1    1    1    1    1    1    1    1    1    1    1    1    1    1    1    1    1    1    1    1
         1    1    1    1    1    1    1    1    1    1    1    1    1    1    1    1    1    1    1    1    1    1    1    1    1
         1    1    1    1    1    1    1    1    1    1    1    1    1    1    1    1    1    1    1    1    1    1    1    1    1
         0    0    0    0
  48     0    0    0    1    1    1    1    1    1    1    1    1    1    1    1    1    1    1    1    1    1    1    1    1    1
         1    1    1    1    1    1    1    1    1    1    1    1    1    1    1    1    1    1    1    1    1    1    1    1    1
         1    1    1    1    1    1    1    1    1    1    1    1    1    1    1    1    1    1    1    1    1    1    1    1    1
         1    0    0    0
  49     0    0    0    1    1    1    1    1    1    1    1    1    1    1    1    1    1    1    1    1    1    1    1    1    1
         1    1    1    1    1    1    1    1    1    1    1    1    1    1    1    1    1    1    1    1    1    1    1    1    1
         1    1    1    1    1    1    1    1    1    1    1    1    1    1    1    1    1    1    1    1    1    1    1    1    1
         1    0    0    0
  50     0    0    0    1    1    1    1    1    1    1    1    1    1    1    1    1    1    1    1    1    1    1    1    1    1
         1    1    1    1    1    1    1    1    1    1    1    1    1    1    1    1    1    1    1    1    1    1    1    1    1
         1    1    1    1    1    1    1    1    1    1    1    1    1    1    1    1    1    1    1    1    1    1    1    1    1
         1    0    0    0
  51     0    0    0    1    1    1    1    1    1    1    1    1    1    1    1    1    1    1    1    1    1    1    1    1    1
         1    1    1    1    1    1    1    1    1    1    1    1    1    1    1    1    1    1    1    1    1    1    1    1    1
         1    1    1    1    1    1    1    1    1    1    1    1    1    1    1    1    1    1    1    1    1    1    1    1    1
         1    0    0    0
  52     0    0    1    1    1    1    1    1    1    1    1    1    1    1    1    1    1    1    1    1    1    1    1    1    1
         1    1    1    1    1    1    1    1    1    1    1    1    1    1    1    1    1    1    1    1    1    1    1    1    1
         1    1    1    1    1    1    1    1    1    1    1    1    1    1    1    1    1    1    1    1    1    1    1    1    1
         1    0    0    0
  53     0    0    1    1    1    1    1    1    1    1    1    1    1    1    1    1    1    1    1    1    1    1    1    1    1
         1    1    1    1    1    1    1    1    1    1    1    1    1    1    1    1    1    1    1    1    1    1    1    1    1
         1    1    1    1    1    1    1    1    1    1    1    1    1    1    1    1    1    1    1    1    1    1    1    1    1
         1    1    0    0
  54     0    0    1    1    1    1    1    1    1    1    1    1    1    1    1    1    1    1    1    1    1    1    1    1    1
         1    1    1    1    1    1    1    1    1    1    1    1    1    1    1    1    1    1    1    1    1    1    1    1    1
         1    1    1    1    1    1    1    1    1    1    1    1    1    1    1    1    1    1    1    1    1    1    1    1    1
         1    1    0    0
  55     0    1    1    1    1    1    1    1    1    1    1    1    1    1    1    1    1    1    1    1    1    1    1    1    1
         1    1    1    1    1    1    1    1    1    1    1    1    1    1    1    1    1    1    1    1    1    1    1    1    1
         1    1    1    1    1    1    1    1    1    1    1    1    1    1    1    1    1    1    1    1    1    1    1    1    1
         1    1    0    0
  56     0    1    1    1    1    1    1    1    1    1    1    1    1    1    1    1    1    1    1    1    1    1    1    1    1
         1    1    1    1    1    1    1    1    1    1    1    1    1    1    1    1    1    1    1    1    1    1    1    1    1
         1    1    1    1    1    1    1    1    1    1    1    1    1    1    1    1    1    1    1    1    1    1    1    1    1
         1    1    0    0
  57     1    1    1    1    1    1    1    1    1    1    1    1    1    1    1    1    1    1    1    1    1    1    1    1    1
         1    1    1    1    1    1    1    1    1    1    1    1    1    1    1    1    1    1    1    1    1    1    1    1    1
         1    1    1    1    1    1    1    1    1    1    1    1    1    1    1    1    1    1    1    1    1    1    1    1    1
         1    1    0    0
  58     1    1    1    1    1    1    1    1    1    1    1    1    1    1    1    1    1    1    1    1    1    1    1    1    1
         1    1    1    1    1    1    1    1    1    1    1    1    1    1    1    1    1    1    1    1    1    1    1    1    1
         1    1    1    1    1    1    1    1    1    1    1    1    1    1    1    1    1    1    1    1    1    1    1    1    1
         1    1    0    0
  59     1    1    1    1    1    1    1    1    1    1    1    1    1    1    1    1    1    1    1    1    1    1    1    1    1
         1    1    1    1    1    1    1    1    1    1    1    1    1    1    1    1    1    1    1    1    1    1    1    1    1
         1    1    1    1    1    1    1    1    1    1    1    1    1    1    1    1    1    1    1    1    1    1    1    1    1
         1    1    1    0
  60     0    1    1    1    1    1    1    1    1    1    1    1    1    0    0    0    1    1    1    1    1    1    1    1    1
         1    1    1    1    1    1    1    1    1    1    1    1    1    1    1    1    1    1    1    1    1    1    1    1    1
         1    1    1    1    1    1    1    1    1    1    1    1    1    1    1    1    1    1    1    1    1    1    1    1    1
         1    1    1    1
  61     0    0    1    1    1    1    1    1    1    1    1    0    0    0    0    0    0    1    1    1    1    1    1    1    1
         1    1    1    1    1    1    1    1    1    1    1    1    1    1    1    1    1    1    1    1    1    1    1    1    1
         1    1    1    1    1    1    1    1    1    1    1    1    1    1    1    1    1    1    1    1    1    1    1    1    1
         1    1    1    1
  62     0    0    0    1    0    0    0    0    0    0    0    0    0    0    0    0    0    0    0    1    1    1    1    1    1
         1    1    1    1    1    1    1    1    1    1    1    1    1    1    1    1    1    1    1    1    1    1    1    1    1
         1    1    1    1    1    1    1    1    1    1    1    1    1    1    1    1    1    1    1    1    1    1    1    1    1
         1    1    1    1
  63     0    0    0    0    0    0    0    0    0    0    0    0    0    0    0    0    0    0    0    1    1    1    1    1    1
         1    1    1    1    1    1    1    1    1    1    1    1    1    1    1    1    1    1    1    1    1    1    1    1    1
         1    1    1    1    1    1    1    1    1    1    1    1    1    1    1    1    1    1    1    1    1    1    1    1    1
         1    1    1    1
  64     0    0    0    0    0    0    0    0    0    0    0    0    0    0    0    0    0    0    0    0    0    0    0    0    1
         1    1    1    1    1    1    1    1    1    1    1    1    1    1    1    1    1    1    1    1    1    1    1    1    1
         1    1    1    1    1    1    1    1    1    1    1    1    1    1    1    1    1    1    1    1    1    1    1    1    1
         1    1    1    1
  65     0    0    0    0    0    0    0    0    0    0    0    0    0    0    0    0    0    0    0    0    0    0    0    0    0
         0    0    0    0    0    0    0    0    1    1    1    1    1    1    1    1    1    1    1    1    0    0    0    0    1
         1    1    1    1    1    1    1    1    1    1    1    1    1    1    1    1    1    1    1    1    1    1    1    1    1
         1    1    1    1
  66     0    0    0    0    0    0    0    0    0    0    0    0    0    0    0    0    0    0    0    0    0    0    0    0    0
         0    0    0    0    0    0    0    0    0    0    1    1    0    0    0    0    0    0    0    0    0    0    0    0    0
         1    1    1    1    1    1    1    1    1    1    1    1    1    1    1    1    1    1    1    1    1    1    1    1    1
         1    1    1    1
  67     0    0    0    0    0    0    0    0    0    0    0    0    0    0    0    0    0    0    0    0    0    0    0    0    0
         0    0    0    0    0    0    0    0    0    0    0    0    0    0    0    0    0    0    0    0    0    0    0    0    0
         0    0    1    1    1    1    1    1    1    1    1    1    1    1    1    1    1    1    1    1    1    0    0    0    0
         0    0    0    0
  68     0    0    0    0    0    0    0    0    0    0    0    0    0    0    0    0    0    0    0    0    0    0    0    0    0
         0    0    0    0    0    0    0    0    0    0    0    0    0    0    0    0    0    0    0    0    0    0    0    0    0
         0    0    0    1    1    1    1    1    1    1    1    1    1    1    1    1    1    1    0    0    0    0    0    0    0
         0    0    0    0
  69     0    0    0    0    0    0    0    0    0    0    0    0    0    0    0    0    0    0    0    0    0    0    0    0    0
         0    0    0    0    0    0    0    0    0    0    0    0    0    0    0    0    0    0    0    0    0    0    0    0    0
         0    0    0    0    0    0    0    0    0    0    1    1    1    1    1    1    1    0    0    0    0    0    0    0    0
         0    0    0    0
  70     0    0    0    0    0    0    0    0    0    0    0    0    0    0    0    0    0    0    0    0    0    0    0    0    0
         0    0    0    0    0    0    0    0    0    0    0    0    0    0    0    0    0    0    0    0    0    0    0    0    0
         0    0    0    0    0    0    0    0    0    0    0    1    1    1    1    1    0    0    0    0    0    0    0    0    0
         0    0    0    0
  71     0    0    0    0    0    0    0    0    0    0    0    0    0    0    0    0    0    0    0    0    0    0    0    0    0
         0    0    0    0    0    0    0    0    0    0    0    0    0    0    0    0    0    0    0    0    0    0    0    0    0
         0    0    0    0    0    0    0    0    0    0    0    0    1    1    0    0    0    0    0    0    0    0    0    0    0
         0    0    0    0



                     BOUNDARY ARRAY FOR LAYER   3
 READING ON UNIT    8 WITH FORMAT: (FREE)              

         1    2    3    4    5    6    7    8    9   10   11   12   13   14   15   16   17   18   19   20   21   22   23   24   25
        26   27   28   29   30   31   32   33   34   35   36   37   38   39   40   41   42   43   44   45   46   47   48   49   50
        51   52   53   54   55   56   57   58   59   60   61   62   63   64   65   66   67   68   69   70   71   72   73   74   75
        76   77   78   79
 .................................................................................................................................
   1     0    0    0    0    0    0    0    0    0    0    0    0    0    0    0    0    0    0    0    0    0    0    0    0    0
         0    0    0    0    0    0    0    0    0    0    0    0    0    0    0    0    0    0    0    0    0    0    0    0    0
         0    1    1    0    0    0    0    0    0    0    0    0    0    0    0    0    0    0    0    0    0    0    0    0    0
         0    0    0    0
   2     0    0    0    0    0    0    0    0    0    0    0    0    0    0    0    0    0    0    0    0    0    0    0    0    0
         0    0    0    0    0    0    0    0    0    0    0    0    0    0    0    0    0    0    0    0    0    0    0    0    0
         0    1    1    1    0    0    0    0    0    0    0    0    0    0    0    0    0    0    0    0    0    0    0    0    0
         0    0    0    0
   3     0    0    0    0    0    0    0    0    0    0    0    0    0    0    0    0    0    0    0    0    0    0    0    0    0
         0    0    0    0    0    0    0    0    0    0    0    0    0    0    0    0    0    0    0    0    0    0    0    0    0
         0    1    1    1    0    0    0    0    0    0    0    0    0    0    0    0    0    0    0    0    0    0    0    0    0
         0    0    0    0
   4     0    0    0    0    0    0    0    0    0    0    0    0    0    0    0    0    0    0    0    0    0    0    0    0    0
         0    0    0    0    0    0    0    0    0    0    0    0    0    0    0    0    0    0    0    0    0    0    0    0    0
         0    1    1    1    1    0    0    0    0    0    0    0    0    0    0    0    0    0    0    0    0    0    0    0    0
         0    0    0    0
   5     0    0    0    0    0    0    0    0    0    0    0    0    0    0    0    0    0    0    0    0    0    0    0    0    0
         0    0    0    0    0    0    0    0    0    0    0    0    0    0    0    0    0    0    0    0    0    0    0    0    0
         0    1    1    1    1    1    1    0    0    0    0    0    0    0    0    0    0    0    0    0    0    0    0    0    0
         0    0    0    0
   6     0    0    0    0    0    0    0    0    0    0    0    0    0    0    0    0    0    0    0    0    0    0    0    0    0
         0    0    0    0    0    0    0    0    0    0    0    0    0    0    0    0    0    0    0    0    0    0    0    0    0
         0    1    1    1    1    1    1    1    1    0    0    0    0    1    1    0    0    0    0    0    0    0    0    0    0
         0    0    0    0
   7     0    0    0    0    0    0    0    0    0    0    0    0    0    0    0    0    0    0    0    0    0    0    0    0    0
         0    0    0    0    0    0    0    0    0    0    0    0    0    0    0    0    0    0    0    0    0    0    0    0    0
         0    1    1    1    1    1    1    1    1    1    1    1    1    1    1    1    0    0    0    0    0    0    0    0    0
         0    0    0    0
   8     0    0    0    0    0    0    0    0    0    0    0    0    0    0    0    0    0    0    0    0    0    0    0    0    0
         0    0    0    0    0    0    0    0    0    0    0    0    0    0    0    0    0    0    0    0    0    0    0    0    0
         0    1    1    1    1    1    1    1    1    1    1    1    1    1    1    1    1    1    0    0    0    0    0    0    0
         0    0    0    0
   9     0    0    0    0    0    0    0    0    0    0    0    0    0    0    0    0    0    0    0    0    0    0    0    0    0
         0    0    0    0    0    0    0    0    0    0    0    0    0    0    0    0    0    0    0    0    0    0    0    0    0
         1    1    1    1    1    1    1    1    1    1    1    1    1    1    1    1    1    1    1    0    0    0    0    0    0
         0    0    0    0
  10     0    0    0    0    0    0    0    0    0    0    0    0    0    0    0    0    0    0    0    0    0    0    0    0    0
         0    0    0    0    0    0    0    0    0    0    0    0    0    0    0    0    0    0    0    0    0    0    0    0    1
         1    1    1    1    1    1    1    1    1    1    1    1    1    1    1    1    1    1    1    1    0    0    0    0    0
         0    0    0    0
  11     0    0    0    0    0    0    0    0    0    0    0    0    0    0    0    0    0    0    0    0    0    0    0    0    0
         0    0    0    0    0    0    0    0    0    0    0    0    0    0    0    0    0    0    0    0    0    0    0    1    1
         1    1    1    1    1    1    1    1    1    1    1    1    1    1    1    1    1    1    1    1    1    0    0    0    0
         0    0    0    0
  12     0    0    0    0    0    0    0    0    0    0    0    0    0    0    0    0    0    0    0    0    0    0    0    0    0
         0    0    0    0    0    0    0    0    0    0    0    0    0    0    0    0    1    1    0    0    0    0    1    1    1
         1    1    1    1    1    1    1    1    1    1    1    1    1    1    1    1    1    1    1    1    1    0    0    0    0
         0    0    0    0
  13     0    0    0    0    0    0    0    0    0    0    0    0    0    0    0    0    0    0    0    0    0    0    0    0    0
         0    0    0    0    0    0    0    0    0    0    0    0    0    1    1    1    1    1    1    1    1    1    1    1    1
         1    1    1    1    1    1    1    1    1    1    1    1    1    1    1    1    1    1    1    1    1    1    0    0    0
         0    0    0    0
  14     0    0    0    0    0    0    0    0    0    0    0    0    0    0    0    0    0    0    0    0    0    0    0    0    0
         0    0    0    0    0    0    0    0    0    0    0    0    0    1    1    1    1    1    1    1    1    1    1    1    1
         1    1    1    1    1    1    1    1    1    1    1    1    1    1    1    1    1    1    1    1    1    1    1    0    0
         0    0    0    0
  15     0    0    0    0    0    0    0    0    0    0    0    0    0    0    0    0    0    0    0    0    0    0    0    0    0
         0    0    0    0    0    0    0    0    0    0    0    0    1    1    1    1    1    1    1    1    1    1    1    1    1
         1    1    1    1    1    1    1    1    1    1    1    1    1    1    1    1    1    1    1    1    1    1    1    0    0
         0    0    0    0
  16     0    0    0    0    0    0    0    0    0    0    0    0    0    0    0    0    0    0    0    0    0    0    0    0    0
         0    0    0    0    0    0    0    0    0    0    0    1    1    1    1    1    1    1    1    1    1    1    1    1    1
         1    1    1    1    1    1    1    1    1    1    1    1    1    1    1    1    1    1    1    1    1    1    1    1    0
         0    0    0    0
  17     0    0    0    0    0    0    0    0    0    0    0    0    0    0    0    0    0    0    0    0    0    0    0    0    0
         0    0    0    0    0    0    0    0    0    0    1    1    1    1    1    1    1    1    1    1    1    1    1    1    1
         1    1    1    1    1    1    1    1    1    1    1    1    1    1    1    1    1    1    1    1    1    1    1    1    0
         0    0    0    0
  18     0    0    0    0    0    0    0    0    0    0    0    0    0    0    0    0    0    0    0    0    0    0    0    0    0
         0    0    0    0    0    0    0    0    0    1    1    1    1    1    1    1    1    1    1    1    1    1    1    1    1
         1    1    1    1    1    1    1    1    1    1    1    1    1    1    1    1    1    1    1    1    1    1    1    1    0
         0    0    0    0
  19     0    0    0    0    0    0    0    0    0    0    0    0    0    0    0    0    0    0    0    0    0    0    0    0    0
         0    0    0    0    0    0    0    0    1    1    1    1    1    1    1    1    1    1    1    1    1    1    1    1    1
         1    1    1    1    1    1    1    1    1    1    1    1    1    1    1    1    1    1    1    1    1    1    1    1    0
         0    0    0    0
  20     0    0    0    0    0    0    0    0    0    0    0    0    0    0    0    0    0    0    0    0    0    0    0    0    0
         0    0    0    0    0    0    0    0    1    1    1    1    1    1    1    1    1    1    1    1    1    1    1    1    1
         1    1    1    1    1    1    1    1    1    1    1    1    1    1    1    1    1    1    1    1    1    1    1    1    0
         0    0    0    0
  21     0    0    0    0    0    0    0    0    0    0    0    0    0    0    0    0    0    0    0    0    0    0    0    0    0
         0    0    0    0    0    0    0    1    1    1    1    1    1    1    1    1    1    1    1    1    1    1    1    1    1
         1    1    1    1    1    1    1    1    1    1    1    1    1    1    1    1    1    1    1    1    1    1    1    1    1
         0    0    0    0
  22     0    0    0    0    0    0    0    0    0    0    0    0    0    0    0    0    0    0    0    0    0    0    0    0    0
         0    0    0    0    0    0    0    1    1    1    1    1    1    1    1    1    1    1    1    1    1    1    1    1    1
         1    1    1    1    1    1    1    1    1    1    1    1    1    1    1    1    1    1    1    1    1    1    1    1    0
         0    0    0    0
  23     0    0    0    0    0    0    0    0    0    0    0    0    0    0    0    0    0    0    0    0    0    0    0    0    0
         0    0    0    0    0    0    1    1    1    1    1    1    1    1    1    1    1    1    1    1    1    1    1    1    1
         1    1    1    1    1    1    1    1    1    1    1    1    1    1    1    1    1    1    1    1    1    0    0    0    0
         0    0    0    0
  24     0    0    0    0    0    0    0    0    0    0    0    0    0    0    0    0    0    0    0    0    0    0    0    0    0
         0    0    0    1    1    1    1    1    1    1    1    1    1    1    1    1    1    1    1    1    1    1    1    1    1
         1    1    1    1    1    1    1    1    1    1    1    1    1    1    1    1    1    1    1    1    1    0    0    0    0
         0    0    0    0
  25     0    0    0    0    0    0    0    0    0    0    0    0    0    0    0    0    0    0    0    0    0    0    0    0    0
         0    0    1    1    1    1    1    1    1    1    1    1    1    1    1    1    1    1    1    1    1    1    1    1    1
         1    1    1    1    1    1    1    1    1    1    1    1    1    1    1    1    1    1    1    1    1    0    0    0    0
         0    0    0    0
  26     0    0    0    0    0    0    0    0    0    0    0    0    0    0    0    0    0    0    0    0    0    0    0    0    0
         1    1    1    1    1    1    1    1    1    1    1    1    1    1    1    1    1    1    1    1    1    1    1    1    1
         1    1    1    1    1    1    1    1    1    1    1    1    1    1    1    1    1    1    1    1    1    0    0    0    0
         0    0    0    0
  27     0    0    0    0    0    0    0    0    0    0    0    0    0    0    0    0    0    0    0    0    0    0    0    0    1
         1    1    1    1    1    1    1    1    1    1    1    1    1    1    1    1    1    1    1    1    1    1    1    1    1
         1    1    1    1    1    1    1    1    1    1    1    1    1    1    1    1    1    1    1    1    1    0    0    0    0
         0    0    0    0
  28     0    0    0    0    0    0    0    0    0    0    0    0    0    0    0    0    0    0    0    0    0    0    0    1    1
         1    1    1    1    1    1    1    1    1    1    1    1    1    1    1    1    1    1    1    1    1    1    1    1    1
         1    1    1    1    1    1    1    1    1    1    1    1    1    1    1    1    1    1    1    1    1    1    0    0    0
         0    0    0    0
  29     0    0    0    0    0    0    0    0    0    0    0    0    0    0    0    0    0    0    0    0    0    1    1    1    1
         1    1    1    1    1    1    1    1    1    1    1    1    1    1    1    1    1    1    1    1    1    1    1    1    1
         1    1    1    1    1    1    1    1    1    1    1    1    1    1    1    1    1    1    1    1    1    1    0    0    0
         0    0    0    0
  30     0    0    0    0    0    0    0    0    0    0    0    0    0    0    0    0    0    0    0    1    1    1    1    1    1
         1    1    1    1    1    1    1    1    1    1    1    1    1    1    1    1    1    1    1    1    1    1    1    1    1
         1    1    1    1    1    1    1    1    1    1    1    1    1    1    1    1    1    1    1    1    1    1    0    0    0
         0    0    0    0
  31     0    0    0    0    0    0    0    0    0    0    0    0    0    0    0    0    0    0    1    1    1    1    1    1    1
         1    1    1    1    1    1    1    1    1    1    1    1    1    1    1    1    1    1    1    1    1    1    1    1    1
         1    1    1    1    1    1    1    1    1    1    1    1    1    1    1    1    1    1    1    1    1    1    0    0    0
         0    0    0    0
  32     0    0    0    0    0    0    0    0    0    0    0    0    0    0    0    0    1    1    1    1    1    1    1    1    1
         1    1    1    1    1    1    1    1    1    1    1    1    1    1    1    1    1    1    1    1    1    1    1    1    1
         1    1    1    1    1    1    1    1    1    1    1    1    1    1    1    1    1    1    1    1    1    1    0    0    0
         0    0    0    0
  33     0    0    0    0    0    0    0    0    0    0    0    0    0    0    0    1    1    1    1    1    1    1    1    1    1
         1    1    1    1    1    1    1    1    1    1    1    1    1    1    1    1    1    1    1    1    1    1    1    1    1
         1    1    1    1    1    1    1    1    1    1    1    1    1    1    1    1    1    1    1    1    1    1    1    0    0
         0    0    0    0
  34     0    0    0    0    0    0    0    0    0    0    0    0    0    0    1    1    1    1    1    1    1    1    1    1    1
         1    1    1    1    1    1    1    1    1    1    1    1    1    1    1    1    1    1    1    1    1    1    1    1    1
         1    1    1    1    1    1    1    1    1    1    1    1    1    1    1    1    1    1    1    1    1    1    1    0    0
         0    0    0    0
  35     0    0    0    0    0    0    0    0    0    0    0    0    0    1    1    1    1    1    1    1    1    1    1    1    1
         1    1    1    1    1    1    1    1    1    1    1    1    1    1    1    1    1    1    1    1    1    1    1    1    1
         1    1    1    1    1    1    1    1    1    1    1    1    1    1    1    1    1    1    1    1    1    1    1    1    0
         0    0    0    0
  36     0    0    0    0    0    0    0    0    0    0    0    0    0    1    1    1    1    1    1    1    1    1    1    1    1
         1    1    1    1    1    1    1    1    1    1    1    1    1    1    1    1    1    1    1    1    1    1    1    1    1
         1    1    1    1    1    1    1    1    1    1    1    1    1    1    1    1    1    1    1    1    1    1    1    1    1
         0    0    0    0
  37     0    0    0    0    0    0    0    0    0    0    0    0    1    1    1    1    1    1    1    1    1    1    1    1    1
         1    1    1    1    1    1    1    1    1    1    1    1    1    1    1    1    1    1    1    1    1    1    1    1    1
         1    1    1    1    1    1    1    1    1    1    1    1    1    1    1    1    1    1    1    1    1    1    1    1    1
         0    0    0    0
  38     0    0    0    0    0    0    0    0    0    0    1    1    1    1    1    1    1    1    1    1    1    1    1    1    1
         1    1    1    1    1    1    1    1    1    1    1    1    1    1    1    1    1    1    1    1    1    1    1    1    1
         1    1    1    1    1    1    1    1    1    1    1    1    1    1    1    1    1    1    1    1    1    1    1    1    1
         1    0    0    0
  39     0    0    0    0    0    0    0    1    1    1    1    1    1    1    1    1    1    1    1    1    1    1    1    1    1
         1    1    1    1    1    1    1    1    1    1    1    1    1    1    1    1    1    1    1    1    1    1    1    1    1
         1    1    1    1    1    1    1    1    1    1    1    1    1    1    1    1    1    1    1    1    1    1    1    1    1
        -1    0    0    0
  40     0    0    0    0    0    0    1    1    1    1    1    1    1    1    1    1    1    1    1    1    1    1    1    1    1
         1    1    1    1    1    1    1    1    1    1    1    1    1    1    1    1    1    1    1    1    1    1    1    1    1
         1    1    1    1    1    1    1    1    1    1    1    1    1    1    1    1    1    1    1    1    1    1    1    1    1
        -1    0    0    0
  41     0    0    0    0    0    1    1    1    1    1    1    1    1    1    1    1    1    1    1    1    1    1    1    1    1
         1    1    1    1    1    1    1    1    1    1    1    1    1    1    1    1    1    1    1    1    1    1    1    1    1
         1    1    1    1    1    1    1    1    1    1    1    1    1    1    1    1    1    1    1    1    1    1    1    1    1
         0    0    0    0
  42     0    0    0    0    0    1    1    1    1    1    1    1    1    1    1    1    1    1    1    1    1    1    1    1    1
         1    1    1    1    1    1    1    1    1    1    1    1    1    1    1    1    1    1    1    1    1    1    1    1    1
         1    1    1    1    1    1    1    1    1    1    1    1    1    1    1    1    1    1    1    1    1    1    1    1    1
         0    0    0    0
  43     0    0    0    0    0    1    1    1    1    1    1    1    1    1    1    1    1    1    1    1    1    1    1    1    1
         1    1    1    1    1    1    1    1    1    1    1    1    1    1    1    1    1    1    1    1    1    1    1    1    1
         1    1    1    1    1    1    1    1    1    1    1    1    1    1    1    1    1    1    1    1    1    1    1    1    1
         0    0    0    0
  44     0    0    0    0    0    1    1    1    1    1    1    1    1    1    1    1    1    1    1    1    1    1    1    1    1
         1    1    1    1    1    1    1    1    1    1    1    1    1    1    1    1    1    1    1    1    1    1    1    1    1
         1    1    1    1    1    1    1    1    1    1    1    1    1    1    1    1    1    1    1    1    1    1    1    1    1
         0    0    0    0
  45     0    0    0    1    1    1    1    1    1    1    1    1    1    1    1    1    1    1    1    1    1    1    1    1    1
         1    1    1    1    1    1    1    1    1    1    1    1    1    1    1    1    1    1    1    1    1    1    1    1    1
         1    1    1    1    1    1    1    1    1    1    1    1    1    1    1    1    1    1    1    1    1    1    1    1    1
         0    0    0    0
  46     0    0    0    1    1    1    1    1    1    1    1    1    1    1    1    1    1    1    1    1    1    1    1    1    1
         1    1    1    1    1    1    1    1    1    1    1    1    1    1    1    1    1    1    1    1    1    1    1    1    1
         1    1    1    1    1    1    1    1    1    1    1    1    1    1    1    1    1    1    1    1    1    1    1    1    1
         0    0    0    0
  47     0    0    0    1    1    1    1    1    1    1    1    1    1    1    1    1    1    1    1    1    1    1    1    1    1
         1    1    1    1    1    1    1    1    1    1    1    1    1    1    1    1    1    1    1    1    1    1    1    1    1
         1    1    1    1    1    1    1    1    1    1    1    1    1    1    1    1    1    1    1    1    1    1    1    1    1
         0    0    0    0
  48     0    0    0    1    1    1    1    1    1    1    1    1    1    1    1    1    1    1    1    1    1    1    1    1    1
         1    1    1    1    1    1    1    1    1    1    1    1    1    1    1    1    1    1    1    1    1    1    1    1    1
         1    1    1    1    1    1    1    1    1    1    1    1    1    1    1    1    1    1    1    1    1    1    1    1    1
         1    0    0    0
  49     0    0    0    1    1    1    1    1    1    1    1    1    1    1    1    1    1    1    1    1    1    1    1    1    1
         1    1    1    1    1    1    1    1    1    1    1    1    1    1    1    1    1    1    1    1    1    1    1    1    1
         1    1    1    1    1    1    1    1    1    1    1    1    1    1    1    1    1    1    1    1    1    1    1    1    1
         1    0    0    0
  50     0    0    0    1    1    1    1    1    1    1    1    1    1    1    1    1    1    1    1    1    1    1    1    1    1
         1    1    1    1    1    1    1    1    1    1    1    1    1    1    1    1    1    1    1    1    1    1    1    1    1
         1    1    1    1    1    1    1    1    1    1    1    1    1    1    1    1    1    1    1    1    1    1    1    1    1
         1    0    0    0
  51     0    0    0    1    1    1    1    1    1    1    1    1    1    1    1    1    1    1    1    1    1    1    1    1    1
         1    1    1    1    1    1    1    1    1    1    1    1    1    1    1    1    1    1    1    1    1    1    1    1    1
         1    1    1    1    1    1    1    1    1    1    1    1    1    1    1    1    1    1    1    1    1    1    1    1    1
         1    0    0    0
  52     0    0    1    1    1    1    1    1    1    1    1    1    1    1    1    1    1    1    1    1    1    1    1    1    1
         1    1    1    1    1    1    1    1    1    1    1    1    1    1    1    1    1    1    1    1    1    1    1    1    1
         1    1    1    1    1    1    1    1    1    1    1    1    1    1    1    1    1    1    1    1    1    1    1    1    1
         1    0    0    0
  53     0    0    1    1    1    1    1    1    1    1    1    1    1    1    1    1    1    1    1    1    1    1    1    1    1
         1    1    1    1    1    1    1    1    1    1    1    1    1    1    1    1    1    1    1    1    1    1    1    1    1
         1    1    1    1    1    1    1    1    1    1    1    1    1    1    1    1    1    1    1    1    1    1    1    1    1
         1    1    0    0
  54     0    0    1    1    1    1    1    1    1    1    1    1    1    1    1    1    1    1    1    1    1    1    1    1    1
         1    1    1    1    1    1    1    1    1    1    1    1    1    1    1    1    1    1    1    1    1    1    1    1    1
         1    1    1    1    1    1    1    1    1    1    1    1    1    1    1    1    1    1    1    1    1    1    1    1    1
         1    1    0    0
  55     0    1    1    1    1    1    1    1    1    1    1    1    1    1    1    1    1    1    1    1    1    1    1    1    1
         1    1    1    1    1    1    1    1    1    1    1    1    1    1    1    1    1    1    1    1    1    1    1    1    1
         1    1    1    1    1    1    1    1    1    1    1    1    1    1    1    1    1    1    1    1    1    1    1    1    1
         1    1    0    0
  56     0    1    1    1    1    1    1    1    1    1    1    1    1    1    1    1    1    1    1    1    1    1    1    1    1
         1    1    1    1    1    1    1    1    1    1    1    1    1    1    1    1    1    1    1    1    1    1    1    1    1
         1    1    1    1    1    1    1    1    1    1    1    1    1    1    1    1    1    1    1    1    1    1    1    1    1
         1    1    0    0
  57     1    1    1    1    1    1    1    1    1    1    1    1    1    1    1    1    1    1    1    1    1    1    1    1    1
         1    1    1    1    1    1    1    1    1    1    1    1    1    1    1    1    1    1    1    1    1    1    1    1    1
         1    1    1    1    1    1    1    1    1    1    1    1    1    1    1    1    1    1    1    1    1    1    1    1    1
         1    1    0    0
  58     1    1    1    1    1    1    1    1    1    1    1    1    1    1    1    1    1    1    1    1    1    1    1    1    1
         1    1    1    1    1    1    1    1    1    1    1    1    1    1    1    1    1    1    1    1    1    1    1    1    1
         1    1    1    1    1    1    1    1    1    1    1    1    1    1    1    1    1    1    1    1    1    1    1    1    1
         1    1    0    0
  59     1    1    1    1    1    1    1    1    1    1    1    1    1    1    1    1    1    1    1    1    1    1    1    1    1
         1    1    1    1    1    1    1    1    1    1    1    1    1    1    1    1    1    1    1    1    1    1    1    1    1
         1    1    1    1    1    1    1    1    1    1    1    1    1    1    1    1    1    1    1    1    1    1    1    1    1
         1    1    1    0
  60     0    1    1    1    1    1    1    1    1    1    1    1    1    0    0    0    1    1    1    1    1    1    1    1    1
         1    1    1    1    1    1    1    1    1    1    1    1    1    1    1    1    1    1    1    1    1    1    1    1    1
         1    1    1    1    1    1    1    1    1    1    1    1    1    1    1    1    1    1    1    1    1    1    1    1    1
         1    1    1    1
  61     0    0    1    1    1    1    1    1    1    1    1    0    0    0    0    0    0    1    1    1    1    1    1    1    1
         1    1    1    1    1    1    1    1    1    1    1    1    1    1    1    1    1    1    1    1    1    1    1    1    1
         1    1    1    1    1    1    1    1    1    1    1    1    1    1    1    1    1    1    1    1    1    1    1    1    1
         1    1    1    1
  62     0    0    0    1    0    0    0    0    0    0    0    0    0    0    0    0    0    0    0    1    1    1    1    1    1
         1    1    1    1    1    1    1    1    1    1    1    1    1    1    1    1    1    1    1    1    1    1    1    1    1
         1    1    1    1    1    1    1    1    1    1    1    1    1    1    1    1    1    1    1    1    1    1    1    1    1
         1    1    1    1
  63     0    0    0    0    0    0    0    0    0    0    0    0    0    0    0    0    0    0    0    1    1    1    1    1    1
         1    1    1    1    1    1    1    1    1    1    1    1    1    1    1    1    1    1    1    1    1    1    1    1    1
         1    1    1    1    1    1    1    1    1    1    1    1    1    1    1    1    1    1    1    1    1    1    1    1    1
         1    1    1    1
  64     0    0    0    0    0    0    0    0    0    0    0    0    0    0    0    0    0    0    0    0    0    0    0    0    1
         1    1    1    1    1    1    1    1    1    1    1    1    1    1    1    1    1    1    1    1    1    1    1    1    1
         1    1    1    1    1    1    1    1    1    1    1    1    1    1    1    1    1    1    1    1    1    1    1    1    1
         1    1    1    1
  65     0    0    0    0    0    0    0    0    0    0    0    0    0    0    0    0    0    0    0    0    0    0    0    0    0
         0    0    0    0    0    0    0    0    1    1    1    1    1    1    1    1    1    1    1    1    0    0    0    0    1
         1    1    1    1    1    1    1    1    1    1    1    1    1    1    1    1    1    1    1    1    1    1    1    1    1
         1    1    1    1
  66     0    0    0    0    0    0    0    0    0    0    0    0    0    0    0    0    0    0    0    0    0    0    0    0    0
         0    0    0    0    0    0    0    0    0    0    1    1    0    0    0    0    0    0    0    0    0    0    0    0    0
         1    1    1    1    1    1    1    1    1    1    1    1    1    1    1    1    1    1    1    1    1    1    1    1    1
         1    1    1    1
  67     0    0    0    0    0    0    0    0    0    0    0    0    0    0    0    0    0    0    0    0    0    0    0    0    0
         0    0    0    0    0    0    0    0    0    0    0    0    0    0    0    0    0    0    0    0    0    0    0    0    0
         0    0    1    1    1    1    1    1    1    1    1    1    1    1    1    1    1    1    1    1    1    0    0    0    0
         0    0    0    0
  68     0    0    0    0    0    0    0    0    0    0    0    0    0    0    0    0    0    0    0    0    0    0    0    0    0
         0    0    0    0    0    0    0    0    0    0    0    0    0    0    0    0    0    0    0    0    0    0    0    0    0
         0    0    0    1    1    1    1    1    1    1    1    1    1    1    1    1    1    1    0    0    0    0    0    0    0
         0    0    0    0
  69     0    0    0    0    0    0    0    0    0    0    0    0    0    0    0    0    0    0    0    0    0    0    0    0    0
         0    0    0    0    0    0    0    0    0    0    0    0    0    0    0    0    0    0    0    0    0    0    0    0    0
         0    0    0    0    0    0    0    0    0    0    1    1    1    1    1    1    1    0    0    0    0    0    0    0    0
         0    0    0    0
  70     0    0    0    0    0    0    0    0    0    0    0    0    0    0    0    0    0    0    0    0    0    0    0    0    0
         0    0    0    0    0    0    0    0    0    0    0    0    0    0    0    0    0    0    0    0    0    0    0    0    0
         0    0    0    0    0    0    0    0    0    0    0    1    1    1    1    1    0    0    0    0    0    0    0    0    0
         0    0    0    0
  71     0    0    0    0    0    0    0    0    0    0    0    0    0    0    0    0    0    0    0    0    0    0    0    0    0
         0    0    0    0    0    0    0    0    0    0    0    0    0    0    0    0    0    0    0    0    0    0    0    0    0
         0    0    0    0    0    0    0    0    0    0    0    0    1    1    0    0    0    0    0    0    0    0    0    0    0
         0    0    0    0

 AQUIFER HEAD WILL BE SET TO  -999.00     AT ALL NO-FLOW NODES (IBOUND=0).



                       INITIAL HEAD FOR LAYER   1
 READING ON UNIT    8 WITH FORMAT: (FREE)              

            1           2           3           4           5           6           7           8           9          10
           11          12          13          14          15          16          17          18          19          20
           21          22          23          24          25          26          27          28          29          30
           31          32          33          34          35          36          37          38          39          40
           41          42          43          44          45          46          47          48          49          50
           51          52          53          54          55          56          57          58          59          60
           61          62          63          64          65          66          67          68          69          70
           71          72          73          74          75          76          77          78          79
 ........................................................................................................................
   1    2322.       2303.       2280.       2256.       2234.       2234.       2244.       2253.       2239.       2220.    
        2204.       2191.       2173.       2161.       2156.       2155.       2155.       2156.       2157.       2157.    
        2166.       2177.       2182.       2176.       2164.       2152.       2145.       2147.       2149.       2148.    
        2146.       2135.       2106.       2095.       2105.       2123.       2148.       2161.       2151.       2139.    
        2133.       2130.       2127.       2124.       2122.       2120.       2120.       2130.       2144.       2154.    
        2164.       2173.       2163.       2141.       2133.       2130.       2125.       2116.       2109.       2107.    
        2104.       2106.       2109.       2117.       2126.       2132.       2125.       2111.       2095.       2085.    
        2074.       2066.       2059.       2054.       2051.       2052.       2061.       2057.       2043.    
   2    2339.       2319.       2292.       2270.       2248.       2243.       2256.       2264.       2249.       2234.    
        2220.       2204.       2192.       2175.       2161.       2157.       2157.       2160.       2167.       2174.    
        2187.       2190.       2189.       2171.       2154.       2146.       2144.       2146.       2149.       2152.    
        2149.       2133.       2107.       2101.       2110.       2127.       2142.       2163.       2160.       2149.    
        2136.       2131.       2128.       2124.       2121.       2120.       2121.       2130.       2146.       2158.    
        2167.       2171.       2157.       2132.       2123.       2123.       2121.       2114.       2111.       2110.    
        2109.       2108.       2110.       2119.       2127.       2135.       2131.       2118.       2102.       2090.    
        2081.       2071.       2062.       2055.       2051.       2052.       2056.       2061.       2060.    
   3    2343.       2324.       2304.       2285.       2261.       2254.       2265.       2279.       2262.       2246.    
        2232.       2219.       2204.       2193.       2175.       2164.       2165.       2173.       2183.       2196.    
        2196.       2197.       2181.       2162.       2145.       2143.       2143.       2145.       2148.       2150.    
        2144.       2121.       2109.       2102.       2112.       2128.       2145.       2163.       2168.       2155.    
        2141.       2133.       2129.       2126.       2123.       2120.       2121.       2132.       2148.       2157.    
        2163.       2164.       2149.       2122.       2121.       2120.       2118.       2114.       2112.       2114.    
        2113.       2111.       2112.       2120.       2128.       2131.       2125.       2114.       2102.       2093.    
        2083.       2072.       2063.       2052.       2047.       2047.       2053.       2062.       2059.    
   4    2344.       2329.       2310.       2293.       2282.       2269.       2272.       2285.       2275.       2258.    
        2242.       2227.       2215.       2200.       2190.       2174.       2174.       2181.       2188.       2192.    
        2196.       2185.       2167.       2150.       2144.       2141.       2142.       2143.       2143.       2141.    
        2128.       2118.       2110.       2108.       2117.       2126.       2142.       2158.       2171.       2159.    
        2147.       2134.       2131.       2129.       2124.       2122.       2125.       2135.       2145.       2152.    
        2158.       2157.       2138.       2121.       2120.       2118.       2116.       2114.       2114.       2119.    
        2119.       2116.       2116.       2121.       2127.       2128.       2121.       2112.       2101.       2093.    
        2088.       2078.       2065.       2050.       2045.       2042.       2045.       2047.       2035.    
   5    2346.       2332.       2318.       2307.       2303.       2288.       2278.       2285.       2282.       2267.    
        2248.       2234.       2220.       2213.       2202.       2183.       2181.       2181.       2184.       2184.    
        2180.       2167.       2147.       2140.       2135.       2140.       2139.       2138.       2137.       2133.    
        2124.       2117.       2110.       2115.       2123.       2127.       2136.       2153.       2172.       2162.    
        2152.       2141.       2135.       2133.       2129.       2126.       2128.       2134.       2142.       2149.    
        2154.       2151.       2131.       2120.       2118.       2118.       2116.       2116.       2119.       2123.    
        2124.       2122.       2119.       2122.       2126.       2126.       2120.       2110.       2099.       2096.    
        2091.       2080.       2068.       2056.       2048.       2040.       2035.       2029.       2017.    
   6    2340.       2333.       2326.       2321.       2317.       2302.       2289.       2288.       2284.       2273.    
        2255.       2236.       2230.       2226.       2212.       2198.       2189.       2187.       2178.       2169.    
        2164.       2148.       2137.       2132.       2137.       2137.       2137.       2135.       2133.       2123.    
        2118.       2113.       2113.       2119.       2125.       2131.       2141.       2153.       2170.       2167.    
        2161.       2151.       2141.       2135.       2133.       2129.       2132.       2136.       2142.       2148.    
        2152.       2149.       2132.       2121.       2119.       2116.       2114.       2116.       2120.       2123.    
        2125.       2123.       2120.       2122.       2124.       2125.       2122.       2113.       2108.       2102.    
        2090.       2075.       2068.       2064.       2064.       2053.       2035.       2028.       2017.    
   7    2340.       2334.       2328.       2329.       2318.       2305.       2293.       2289.       2285.       2277.    
        2262.       2243.       2238.       2239.       2235.       2214.       2200.       2195.       2171.       2161.    
        2151.       2139.       2132.       2126.       2132.       2134.       2134.       2131.       2126.       2119.    
        2115.       2113.       2118.       2123.       2127.       2135.       2143.       2155.       2171.       2169.    
        2164.       2156.       2145.       2141.       2139.       2133.       2134.       2138.       2145.       2149.    
        2155.       2151.       2136.       2132.       2120.       2113.       2111.       2114.       2119.       2122.    
        2126.       2124.       2121.       2119.       2122.       2123.       2122.       2118.       2113.       2108.    
        2099.       2077.       2071.       2072.       2071.       2062.       2053.       2040.       2030.    
   8    2340.       2336.       2333.       2336.       2325.       2310.       2297.       2291.       2285.       2278.    
        2261.       2248.       2245.       2246.       2240.       2226.       2208.       2193.       2172.       2157.    
        2144.       2135.       2129.       2124.       2122.       2122.       2126.       2126.       2122.       2118.    
        2114.       2117.       2123.       2126.       2131.       2136.       2147.       2160.       2171.       2170.    
        2166.       2162.       2151.       2148.       2149.       2138.       2137.       2143.       2150.       2155.    
        2160.       2158.       2146.       2136.       2120.       2109.       2109.       2111.       2117.       2123.    
        2126.       2125.       2122.       2117.       2116.       2117.       2117.       2118.       2117.       2120.    
        2113.       2094.       2085.       2084.       2081.       2077.       2074.       2060.       2036.    
   9    2341.       2338.       2335.       2343.       2330.       2314.       2301.       2293.       2285.       2280.    
        2267.       2256.       2254.       2248.       2240.       2229.       2210.       2194.       2174.       2159.    
        2148.       2135.       2125.       2122.       2121.       2120.       2120.       2120.       2119.       2116.    
        2115.       2119.       2125.       2131.       2135.       2138.       2151.       2169.       2177.       2175.    
        2170.       2166.       2158.       2156.       2153.       2144.       2143.       2146.       2151.       2156.    
        2160.       2152.       2141.       2132.       2121.       2110.       2106.       2108.       2110.       2119.    
        2125.       2125.       2122.       2116.       2110.       2108.       2111.       2116.       2120.       2125.    
        2125.       2118.       2115.       2113.       2103.       2074.       2065.       2049.       2031.    
  10    2342.       2339.       2334.       2336.       2330.       2315.       2302.       2293.       2289.       2282.    
        2267.       2265.       2259.       2251.       2243.       2230.       2212.       2195.       2177.       2163.    
        2148.       2132.       2122.       2121.       2120.       2119.       2119.       2118.       2117.       2115.    
        2116.       2120.       2125.       2132.       2138.       2143.       2152.       2175.       2185.       2182.    
        2179.       2172.       2167.       2165.       2157.       2147.       2148.       2150.       2151.       2151.    
        2154.       2147.       2140.       2130.       2117.       2111.       2106.       2107.       2108.       2115.    
        2120.       2121.       2119.       2116.       2111.       2099.       2106.       2115.       2122.       2127.    
        2130.       2129.       2128.       2120.       2100.       2070.       2056.       2044.       2030.    
  11    2341.       2337.       2333.       2329.       2322.       2316.       2310.       2301.       2293.       2290.    
        2279.       2273.       2265.       2257.       2250.       2231.       2215.       2197.       2177.       2161.    
        2141.       2130.       2122.       2122.       2122.       2121.       2120.       2118.       2116.       2116.    
        2117.       2120.       2126.       2134.       2141.       2146.       2158.       2171.       2183.       2185.    
        2186.       2181.       2182.       2172.       2160.       2156.       2156.       2152.       2150.       2148.    
        2146.       2143.       2139.       2130.       2118.       2111.       2106.       2105.       2105.       2108.    
        2112.       2112.       2113.       2112.       2107.       2097.       2104.       2112.       2119.       2125.    
        2130.       2131.       2128.       2122.       2100.       2072.       2057.       2044.       2035.    
  12    2341.       2339.       2337.       2333.       2329.       2329.       2322.       2314.       2305.       2302.    
        2292.       2280.       2275.       2271.       2254.       2232.       2219.       2195.       2167.       2148.    
        2135.       2123.       2121.       2122.       2122.       2123.       2122.       2120.       2117.       2117.    
        2117.       2120.       2128.       2137.       2147.       2154.       2166.       2183.       2188.       2184.    
        2186.       2187.       2181.       2172.       2167.       2163.       2160.       2156.       2152.       2146.    
        2143.       2137.       2136.       2135.       2121.       2112.       2108.       2103.       2101.       2102.    
        2104.       2106.       2107.       2106.       2101.       2094.       2097.       2105.       2112.       2123.    
        2128.       2128.       2125.       2123.       2113.       2090.       2063.       2053.       2047.    
  13    2343.       2341.       2341.       2340.       2337.       2335.       2330.       2326.       2322.       2320.    
        2309.       2296.       2277.       2254.       2238.       2229.       2208.       2179.       2150.       2137.    
        2126.       2120.       2117.       2117.       2118.       2122.       2119.       2118.       2118.       2117.    
        2118.       2121.       2131.       2145.       2158.       2173.       2181.       2189.       2188.       2185.    
        2184.       2182.       2171.       2167.       2165.       2164.       2161.       2157.       2150.       2144.    
        2139.       2134.       2131.       2128.       2122.       2114.       2108.       2102.       2098.       2096.    
        2097.       2098.       2103.       2101.       2096.       2088.       2089.       2096.       2108.       2121.    
        2123.       2124.       2121.       2117.       2110.       2098.       2079.       2061.       2048.    
  14    2355.       2346.       2346.       2345.       2344.       2343.       2342.       2335.       2322.       2308.    
        2283.       2259.       2237.       2223.       2217.       2206.       2185.       2164.       2135.       2122.    
        2118.       2117.       2117.       2117.       2117.       2117.       2117.       2117.       2117.       2118.    
        2118.       2122.       2142.       2156.       2172.       2184.       2194.       2193.       2188.       2178.    
        2172.       2168.       2158.       2157.       2157.       2161.       2160.       2155.       2148.       2142.    
        2137.       2132.       2128.       2124.       2120.       2116.       2110.       2104.       2098.       2092.    
        2092.       2094.       2097.       2097.       2089.       2081.       2080.       2087.       2098.       2113.    
        2116.       2118.       2118.       2114.       2108.       2102.       2085.       2064.       2052.    
  15    2370.       2352.       2345.       2345.       2335.       2329.       2321.       2315.       2294.       2264.    
        2241.       2213.       2192.       2190.       2185.       2171.       2152.       2133.       2118.       2117.    
        2117.       2117.       2117.       2117.       2117.       2117.       2117.       2117.       2117.       2117.    
        2118.       2127.       2149.       2166.       2187.       2196.       2196.       2197.       2186.       2178.    
        2170.       2153.       2145.       2142.       2143.       2150.       2152.       2151.       2146.       2140.    
        2134.       2129.       2124.       2120.       2116.       2113.       2111.       2106.       2100.       2091.    
        2087.       2090.       2092.       2090.       2087.       2078.       2073.       2078.       2085.       2097.    
        2105.       2110.       2114.       2114.       2113.       2109.       2095.       2073.       2053.    
  16    2350.       2330.       2311.       2306.       2293.       2282.       2261.       2269.       2241.       2213.    
        2195.       2169.       2154.       2153.       2142.       2128.       2118.       2117.       2117.       2117.    
        2117.       2117.       2117.       2117.       2117.       2117.       2117.       2117.       2117.       2117.    
        2122.       2143.       2162.       2186.       2203.       2205.       2207.       2195.       2186.       2175.    
        2164.       2155.       2150.       2146.       2131.       2136.       2137.       2140.       2139.       2136.    
        2132.       2125.       2120.       2115.       2111.       2109.       2107.       2105.       2101.       2097.    
        2083.       2086.       2089.       2088.       2086.       2078.       2070.       2070.       2072.       2084.    
        2092.       2102.       2109.       2110.       2110.       2105.       2098.       2076.       2056.    
  17    2301.       2283.       2267.       2257.       2242.       2227.       2213.       2203.       2183.       2168.    
        2145.       2130.       2121.       2117.       2117.       2117.       2117.       2117.       2117.       2117.    
        2117.       2117.       2117.       2117.       2117.       2117.       2117.       2117.       2117.       2119.    
        2144.       2166.       2191.       2205.       2211.       2208.       2202.       2186.       2179.       2170.    
        2158.       2155.       2152.       2148.       2135.       2124.       2122.       2122.       2129.       2129.    
        2125.       2119.       2113.       2110.       2108.       2106.       2105.       2103.       2100.       2097.    
        2083.       2082.       2087.       2085.       2078.       2067.       2065.       2062.       2063.       2069.    
        2077.       2093.       2101.       2103.       2102.       2098.       2091.       2077.       2055.    
  18    2256.       2235.       2222.       2207.       2192.       2183.       2164.       2150.       2133.       2122.    
        2117.       2117.       2117.       2117.       2117.       2117.       2117.       2117.       2117.       2117.    
        2117.       2117.       2117.       2117.       2117.       2117.       2117.       2117.       2127.       2150.    
        2176.       2199.       2213.       2221.       2214.       2207.       2194.       2182.       2174.       2167.    
        2158.       2155.       2150.       2146.       2133.       2126.       2117.       2105.       2115.       2120.    
        2117.       2111.       2108.       2104.       2102.       2102.       2102.       2101.       2099.       2093.    
        2086.       2073.       2078.       2075.       2067.       2060.       2060.       2057.       2057.       2056.    
        2066.       2081.       2091.       2096.       2097.       2091.       2083.       2074.       2052.    
  19    2212.       2190.       2180.       2166.       2152.       2138.       2122.       2117.       2117.       2117.    
        2117.       2117.       2117.       2117.       2117.       2117.       2117.       2117.       2117.       2117.    
        2117.       2117.       2117.       2117.       2117.       2117.       2118.       2129.       2154.       2185.    
        2209.       2214.       2230.       2220.       2208.       2210.       2195.       2184.       2181.       2172.    
        2163.       2157.       2151.       2147.       2139.       2133.       2117.       2092.       2099.       2108.    
        2109.       2103.       2102.       2099.       2097.       2098.       2100.       2100.       2098.       2089.    
        2081.       2071.       2063.       2063.       2060.       2055.       2057.       2056.       2056.       2056.    
        2058.       2070.       2084.       2096.       2100.       2091.       2082.       2071.       2052.    
  20    2178.       2163.       2147.       2134.       2124.       2117.       2117.       2117.       2117.       2117.    
        2117.       2117.       2117.       2117.       2117.       2117.       2117.       2117.       2117.       2117.    
        2117.       2117.       2117.       2117.       2117.       2120.       2134.       2155.       2184.       2196.    
        2208.       2230.       2224.       2219.       2227.       2228.       2210.       2199.       2187.       2179.    
        2172.       2159.       2149.       2146.       2138.       2132.       2113.       2087.       2089.       2095.    
        2099.       2095.       2095.       2093.       2093.       2094.       2098.       2097.       2092.       2084.    
        2077.       2069.       2060.       2054.       2055.       2053.       2056.       2059.       2060.       2062.    
        2060.       2067.       2083.       2110.       2114.       2097.       2082.       2070.       2051.    
  21    2154.       2141.       2125.       2118.       2117.       2117.       2117.       2117.       2117.       2117.    
        2117.       2117.       2117.       2117.       2117.       2117.       2117.       2117.       2117.       2117.    
        2117.       2117.       2117.       2117.       2119.       2140.       2159.       2177.       2194.       2198.    
        2231.       2229.       2230.       2239.       2243.       2230.       2210.       2194.       2179.       2168.    
        2158.       2148.       2139.       2131.       2124.       2116.       2100.       2077.       2074.       2081.    
        2087.       2085.       2085.       2085.       2088.       2091.       2095.       2092.       2085.       2080.    
        2075.       2067.       2060.       2051.       2051.       2052.       2061.       2065.       2073.       2073.    
        2070.       2070.       2082.       2097.       2107.       2105.       2086.       2073.       2056.    
  22    2136.       2120.       2117.       2117.       2117.       2117.       2117.       2117.       2117.       2117.    
        2117.       2117.       2117.       2117.       2117.       2117.       2117.       2117.       2117.       2117.    
        2117.       2117.       2117.       2125.       2146.       2167.       2187.       2206.       2221.       2235.    
        2235.       2237.       2248.       2245.       2232.       2215.       2199.       2183.       2171.       2162.    
        2151.       2138.       2126.       2114.       2100.       2092.       2075.       2065.       2060.       2068.    
        2077.       2077.       2076.       2080.       2085.       2088.       2091.       2087.       2081.       2075.    
        2071.       2066.       2061.       2051.       2048.       2051.       2058.       2065.       2070.       2075.    
        2080.       2077.       2077.       2087.       2100.       2108.       2099.       2076.       2063.    
  23    2118.       2117.       2117.       2117.       2117.       2117.       2117.       2117.       2117.       2117.    
        2117.       2117.       2117.       2117.       2117.       2117.       2117.       2117.       2117.       2117.    
        2117.       2117.       2132.       2150.       2175.       2197.       2217.       2241.       2239.       2244.    
        2254.       2257.       2243.       2230.       2216.       2201.       2185.       2173.       2160.       2150.    
        2144.       2136.       2123.       2111.       2092.       2073.       2062.       2055.       2049.       2060.    
        2067.       2067.       2069.       2074.       2082.       2085.       2089.       2088.       2079.       2071.    
        2069.       2065.       2061.       2050.       2045.       2047.       2053.       2062.       2070.       2077.    
        2086.       2078.       2075.       2081.       2094.       2104.       2098.       2079.       2068.    
  24    2117.       2117.       2117.       2117.       2117.       2117.       2117.       2117.       2117.       2117.    
        2117.       2117.       2117.       2117.       2117.       2117.       2117.       2117.       2117.       2117.    
        2124.       2143.       2165.       2185.       2205.       2232.       2260.       2257.       2253.       2258.    
        2251.       2240.       2226.       2212.       2199.       2182.       2169.       2156.       2145.       2136.    
        2129.       2119.       2111.       2105.       2093.       2075.       2059.       2047.       2040.       2050.    
        2054.       2054.       2059.       2073.       2077.       2081.       2085.       2086.       2077.       2071.    
        2066.       2065.       2062.       2048.       2045.       2045.       2047.       2056.       2067.       2077.    
        2087.       2080.       2065.       2069.       2078.       2093.       2081.       2070.       2062.    
  25    2117.       2117.       2117.       2117.       2117.       2117.       2117.       2117.       2117.       2117.    
        2117.       2117.       2117.       2117.       2117.       2117.       2119.       2117.       2122.       2133.    
        2155.       2176.       2196.       2217.       2235.       2259.       2274.       2265.       2240.       2229.    
        2229.       2218.       2207.       2196.       2181.       2168.       2155.       2139.       2126.       2119.    
        2113.       2106.       2097.       2092.       2087.       2077.       2058.       2045.       2035.       2038.    
        2042.       2043.       2049.       2064.       2071.       2074.       2078.       2081.       2075.       2065.    
        2062.       2062.       2062.       2057.       2049.       2049.       2045.       2048.       2059.       2068.    
        2079.       2075.       2056.       2053.       2058.       2062.       2064.       2061.       2053.    
  26    2117.       2117.       2117.       2117.       2117.       2117.       2117.       2117.       2117.       2117.    
        2117.       2117.       2117.       2117.       2117.       2126.       2131.       2134.       2150.       2168.    
        2185.       2210.       2234.       2255.       2274.       2274.       2259.       2237.       2212.       2203.    
        2202.       2196.       2187.       2177.       2164.       2151.       2135.       2119.       2108.       2103.    
        2098.       2088.       2083.       2079.       2077.       2072.       2061.       2042.       2033.       2026.    
        2027.       2032.       2040.       2053.       2064.       2068.       2071.       2074.       2070.       2061.    
        2057.       2059.       2058.       2058.       2057.       2050.       2049.       2042.       2049.       2058.    
        2065.       2062.       2046.       2036.       2036.       2043.       2051.       2052.       2046.    
  27    2117.       2117.       2117.       2117.       2117.       2117.       2117.       2117.       2117.       2117.    
        2117.       2117.       2119.       2125.       2134.       2148.       2154.       2172.       2188.       2203.    
        2226.       2247.       2275.       2286.       2273.       2252.       2235.       2217.       2193.       2175.    
        2179.       2176.       2170.       2159.       2147.       2130.       2112.       2101.       2095.       2088.    
        2080.       2074.       2068.       2068.       2067.       2066.       2058.       2046.       2037.       2026.    
        2019.       2023.       2031.       2043.       2058.       2062.       2064.       2065.       2061.       2056.    
        2052.       2052.       2053.       2057.       2057.       2054.       2052.       2041.       2043.       2048.    
        2052.       2051.       2044.       2033.       2032.       2034.       2038.       2042.       2038.    
  28    2117.       2117.       2117.       2117.       2117.       2117.       2117.       2117.       2119.       2125.    
        2129.       2135.       2146.       2155.       2164.       2181.       2197.       2217.       2229.       2247.    
        2264.       2274.       2283.       2273.       2250.       2229.       2213.       2198.       2179.       2166.    
        2163.       2162.       2154.       2142.       2129.       2113.       2097.       2088.       2080.       2072.    
        2064.       2060.       2056.       2057.       2058.       2058.       2054.       2048.       2039.       2028.    
        2014.       2017.       2023.       2036.       2047.       2052.       2056.       2056.       2053.       2051.    
        2046.       2046.       2046.       2053.       2057.       2057.       2055.       2039.       2036.       2042.    
        2045.       2045.       2042.       2034.       2027.       2028.       2032.       2035.       2036.    
  29    2117.       2117.       2117.       2117.       2117.       2117.       2118.       2134.       2143.       2147.    
        2156.       2165.       2171.       2189.       2203.       2221.       2242.       2268.       2277.       2294.    
        2296.       2277.       2269.       2250.       2225.       2207.       2194.       2181.       2170.       2159.    
        2151.       2147.       2138.       2127.       2115.       2099.       2086.       2076.       2067.       2060.    
        2053.       2047.       2045.       2048.       2048.       2049.       2050.       2045.       2039.       2028.    
        2016.       2009.       2017.       2029.       2038.       2041.       2046.       2045.       2046.       2046.    
        2039.       2039.       2040.       2049.       2057.       2056.       2052.       2042.       2029.       2037.    
        2040.       2040.       2039.       2034.       2024.       2025.       2030.       2037.       2038.    
  30    2117.       2117.       2117.       2117.       2117.       2122.       2147.       2161.       2166.       2173.    
        2186.       2197.       2214.       2231.       2253.       2263.       2284.       2302.       2314.       2312.    
        2283.       2263.       2245.       2223.       2202.       2188.       2177.       2168.       2158.       2150.    
        2146.       2135.       2125.       2117.       2105.       2091.       2076.       2064.       2057.       2048.    
        2042.       2037.       2035.       2038.       2039.       2040.       2043.       2039.       2034.       2027.    
        2014.       2004.       2012.       2026.       2029.       2030.       2034.       2034.       2039.       2040.    
        2034.       2032.       2035.       2044.       2053.       2050.       2045.       2041.       2023.       2027.    
        2036.       2036.       2035.       2028.       2023.       2023.       2029.       2037.       2041.    
  31    2117.       2117.       2117.       2117.       2131.       2155.       2176.       2191.       2194.       2202.    
        2221.       2235.       2262.       2285.       2312.       2313.       2318.       2320.       2318.       2297.    
        2271.       2243.       2219.       2202.       2185.       2174.       2166.       2156.       2147.       2140.    
        2135.       2128.       2114.       2108.       2100.       2085.       2068.       2057.       2048.       2042.    
        2036.       2031.       2029.       2029.       2031.       2033.       2034.       2034.       2029.       2023.    
        2010.       1999.       2007.       2019.       2020.       2020.       2022.       2026.       2033.       2033.    
        2027.       2023.       2030.       2039.       2046.       2044.       2038.       2036.       2025.       2011.    
        2022.       2029.       2030.       2025.       2021.       2022.       2026.       2037.       2040.    
  32    2117.       2117.       2120.       2142.       2163.       2187.       2220.       2234.       2226.       2232.    
        2249.       2277.       2319.       2340.       2350.       2347.       2336.       2318.       2297.       2282.    
        2257.       2229.       2203.       2180.       2170.       2162.       2154.       2146.       2138.       2131.    
        2125.       2120.       2109.       2102.       2094.       2081.       2065.       2051.       2044.       2037.    
        2030.       2025.       2023.       2022.       2023.       2025.       2027.       2027.       2026.       2020.    
        2007.       1997.       1997.       2003.       2006.       2009.       2011.       2018.       2023.       2023.    
        2017.       2013.       2023.       2031.       2039.       2038.       2032.       2030.       2020.       2005.    
        2015.       2025.       2027.       2023.       2019.       2019.       2024.       2029.       2030.    
  33    2117.       2129.       2154.       2173.       2202.       2233.       2288.       2272.       2260.       2271.    
        2284.       2314.       2344.       2361.       2377.       2363.       2326.       2301.       2284.       2270.    
        2248.       2222.       2192.       2168.       2159.       2153.       2144.       2136.       2130.       2123.    
        2117.       2113.       2108.       2100.       2086.       2073.       2060.       2049.       2038.       2039.    
        2037.       2031.       2024.       2019.       2017.       2017.       2017.       2019.       2020.       2015.    
        2007.       1997.       1991.       1991.       1994.       1995.       1999.       2005.       2008.       2007.    
        2004.       2005.       2013.       2022.       2028.       2027.       2026.       2025.       2010.       2003.    
        2015.       2022.       2023.       2021.       2016.       2013.       2017.       2020.       2017.    
  34    2135.       2161.       2191.       2215.       2250.       2283.       2322.       2304.       2303.       2306.    
        2311.       2331.       2357.       2384.       2381.       2352.       2317.       2291.       2277.       2265.    
        2243.       2217.       2192.       2169.       2151.       2143.       2133.       2128.       2122.       2116.    
        2111.       2107.       2099.       2092.       2083.       2064.       2054.       2046.       2049.       2049.    
        2050.       2044.       2033.       2022.       2016.       2011.       2007.       2001.       2008.       2007.    
        2003.       1998.       1991.       1987.       1985.       1984.       1986.       1989.       1992.       1994.    
        1989.       1997.       2003.       2011.       2014.       2011.       2006.       2006.       1986.       1995.    
        2005.       2014.       2016.       2018.       2014.       2009.       2009.       2012.       2010.    
  35    2164.       2192.       2228.       2261.       2305.       2337.       2360.       2344.       2340.       2334.    
        2332.       2345.       2367.       2379.       2363.       2346.       2318.       2281.       2270.       2258.    
        2234.       2214.       2193.       2172.       2153.       2141.       2132.       2124.       2115.       2110.    
        2104.       2099.       2091.       2081.       2067.       2062.       2054.       2054.       2066.       2074.    
        2074.       2065.       2041.       2026.       2019.       2014.       2014.       2006.       1994.       1990.    
        1989.       1988.       1989.       1990.       1982.       1979.       1980.       1979.       1980.       1980.    
        1981.       1989.       1997.       1999.       2000.       2001.       1992.       1986.       1973.       1980.    
        1991.       2003.       2014.       2015.       2014.       2007.       1999.       1998.       2002.    
  36    2196.       2229.       2263.       2308.       2368.       2395.       2399.       2384.       2374.       2368.    
        2353.       2357.       2371.       2362.       2350.       2338.       2312.       2280.       2259.       2245.    
        2229.       2209.       2192.       2174.       2160.       2147.       2134.       2124.       2115.       2107.    
        2098.       2091.       2084.       2077.       2074.       2065.       2057.       2062.       2076.       2079.    
        2079.       2068.       2051.       2036.       2023.       2021.       2019.       2010.       1998.       1991.    
        1988.       1984.       1980.       1982.       1976.       1975.       1975.       1974.       1973.       1973.    
        1976.       1982.       1988.       1988.       1985.       1987.       1979.       1975.       1967.       1968.    
        1975.       1990.       2004.       2007.       2006.       2003.       1993.       1973.       1973.    
  37    2230.       2260.       2300.       2346.       2393.       2445.       2427.       2416.       2408.       2398.    
        2376.       2370.       2367.       2354.       2343.       2329.       2309.       2276.       2258.       2240.    
        2219.       2202.       2184.       2170.       2160.       2147.       2134.       2125.       2120.       2112.    
        2101.       2094.       2089.       2085.       2082.       2072.       2061.       2065.       2075.       2080.    
        2077.       2064.       2051.       2040.       2027.       2028.       2024.       2009.       2000.       1995.    
        1991.       1986.       1983.       1980.       1978.       1975.       1973.       1972.       1972.       1970.    
        1971.       1976.       1978.       1977.       1974.       1969.       1964.       1960.       1959.       1960.    
        1964.       1972.       1979.       1982.       1983.       1981.       1973.       1959.       1950.    
  38    2267.       2310.       2356.       2388.       2423.       2463.       2456.       2449.       2433.       2414.    
        2394.       2373.       2361.       2347.       2336.       2324.       2306.       2278.       2265.       2242.    
        2226.       2212.       2193.       2172.       2166.       2155.       2141.       2130.       2125.       2117.    
        2107.       2103.       2099.       2093.       2090.       2080.       2067.       2067.       2073.       2081.    
        2074.       2058.       2049.       2041.       2035.       2037.       2032.       2017.       2006.       1999.    
        1994.       1989.       1986.       1984.       1982.       1978.       1975.       1974.       1972.       1971.    
        1967.       1963.       1963.       1963.       1963.       1960.       1958.       1955.       1953.       1951.    
        1950.       1953.       1957.       1959.       1962.       1958.       1947.       1938.       1932.    
  39    2314.       2357.       2405.       2436.       2458.       2477.       2474.       2460.       2433.       2413.    
        2389.       2372.       2354.       2342.       2333.       2321.       2304.       2287.       2271.       2257.    
        2233.       2216.       2196.       2181.       2177.       2166.       2147.       2137.       2131.       2120.    
        2115.       2111.       2103.       2097.       2096.       2086.       2072.       2071.       2075.       2084.    
        2080.       2061.       2054.       2045.       2046.       2050.       2047.       2035.       2015.       2004.    
        1999.       1993.       1990.       1989.       1987.       1985.       1982.       1979.       1976.       1974.    
        1973.       1977.       1985.       1991.       1983.       1969.       1962.       1953.       1948.       1946.    
        1942.       1942.       1942.       1944.       1943.       1940.       1935.       1932.       1928.    
  40    2368.       2407.       2437.       2469.       2492.       2497.       2484.       2462.       2433.       2410.    
        2388.       2368.       2355.       2344.       2333.       2323.       2311.       2296.       2281.       2261.    
        2238.       2218.       2202.       2198.       2197.       2177.       2162.       2150.       2138.       2127.    
        2124.       2116.       2110.       2105.       2101.       2091.       2074.       2078.       2087.       2090.    
        2089.       2080.       2063.       2052.       2054.       2064.       2059.       2044.       2023.       2014.    
        2005.       2000.       2000.       1997.       1998.       1999.       1996.       1999.       1994.       1980.    
        1978.       1987.       2001.       2006.       2008.       2005.       1989.       1961.       1954.       1949.    
        1945.       1941.       1938.       1936.       1934.       1933.       1931.       1929.       1928.    
  41    2393.       2452.       2479.       2491.       2520.       2518.       2502.       2467.       2443.       2418.    
        2393.       2373.       2357.       2346.       2340.       2332.       2322.       2309.       2283.       2264.    
        2248.       2228.       2215.       2211.       2207.       2194.       2173.       2159.       2142.       2138.    
        2129.       2121.       2114.       2109.       2104.       2093.       2080.       2090.       2099.       2100.    
        2096.       2090.       2075.       2062.       2060.       2076.       2071.       2054.       2039.       2022.    
        2016.       2012.       2014.       2013.       2012.       2019.       2012.       2017.       2002.       1989.    
        1985.       1996.       2007.       2014.       2017.       2017.       2002.       1975.       1962.       1954.    
        1949.       1944.       1941.       1938.       1938.       1936.       1935.       1935.       1935.    
  42    2399.       2448.       2495.       2524.       2541.       2535.       2523.       2491.       2463.       2432.    
        2399.       2378.       2366.       2356.       2357.       2352.       2345.       2325.       2294.       2272.    
        2254.       2240.       2222.       2208.       2200.       2188.       2170.       2159.       2152.       2143.    
        2133.       2123.       2119.       2114.       2107.       2094.       2090.       2106.       2111.       2108.    
        2105.       2096.       2083.       2075.       2070.       2072.       2082.       2076.       2063.       2035.    
        2031.       2029.       2032.       2034.       2034.       2034.       2030.       2020.       2005.       1995.    
        1993.       2004.       2015.       2021.       2023.       2017.       2003.       1982.       1967.       1959.    
        1952.       1946.       1944.       1943.       1942.       1941.       1941.       1941.       1942.    
  43    2429.       2466.       2510.       2541.       2552.       2551.       2539.       2500.       2469.       2438.    
        2408.       2387.       2382.       2379.       2375.       2369.       2363.       2343.       2316.       2282.    
        2264.       2249.       2231.       2222.       2207.       2196.       2187.       2178.       2163.       2147.    
        2137.       2132.       2125.       2118.       2110.       2096.       2099.       2115.       2120.       2116.    
        2115.       2114.       2094.       2083.       2078.       2080.       2091.       2091.       2082.       2060.    
        2057.       2053.       2055.       2056.       2053.       2046.       2036.       2022.       2013.       2000.    
        1999.       2009.       2020.       2028.       2028.       2020.       2006.       1987.       1971.       1962.    
        1955.       1951.       1947.       1951.       1951.       1950.       1948.       1946.       1950.    
  44    2463.       2497.       2540.       2553.       2556.       2554.       2536.       2503.       2467.       2435.    
        2411.       2398.       2390.       2383.       2374.       2368.       2363.       2356.       2333.       2306.    
        2278.       2250.       2254.       2242.       2227.       2213.       2200.       2189.       2172.       2152.    
        2144.       2139.       2130.       2122.       2111.       2099.       2106.       2125.       2133.       2127.    
        2121.       2122.       2121.       2105.       2090.       2091.       2102.       2102.       2095.       2090.    
        2085.       2080.       2079.       2077.       2068.       2060.       2045.       2023.       2017.       2007.    
        2006.       2011.       2021.       2031.       2031.       2021.       2009.       1994.       1976.       1970.    
        1961.       1955.       1952.       1963.       1961.       1959.       1955.       1952.       1959.    
  45    2507.       2535.       2564.       2555.       2547.       2546.       2529.       2499.       2455.       2429.    
        2407.       2393.       2382.       2370.       2354.       2346.       2345.       2340.       2330.       2308.    
        2274.       2280.       2267.       2251.       2238.       2224.       2207.       2192.       2176.       2158.    
        2150.       2142.       2135.       2126.       2113.       2102.       2115.       2136.       2148.       2142.    
        2131.       2122.       2119.       2114.       2103.       2099.       2112.       2112.       2113.       2114.    
        2111.       2107.       2107.       2101.       2084.       2071.       2050.       2031.       2023.       2016.    
        2010.       2013.       2021.       2029.       2029.       2020.       2010.       1997.       1987.       1978.    
        1963.       1960.       1964.       1977.       1979.       1974.       1967.       1959.       1967.    
  46    2515.       2566.       2575.       2556.       2540.       2533.       2520.       2484.       2447.       2421.    
        2397.       2380.       2366.       2352.       2341.       2336.       2329.       2321.       2306.       2306.    
        2309.       2298.       2278.       2267.       2252.       2231.       2209.       2194.       2181.       2167.    
        2154.       2145.       2137.       2125.       2114.       2106.       2119.       2139.       2153.       2148.    
        2139.       2128.       2120.       2113.       2105.       2103.       2114.       2120.       2127.       2132.    
        2134.       2138.       2134.       2120.       2105.       2082.       2058.       2038.       2031.       2026.    
        2017.       2022.       2025.       2032.       2029.       2017.       2008.       1997.       1988.       1976.    
        1969.       1966.       1969.       1980.       1992.       1996.       1986.       1967.       1976.    
  47    2513.       2556.       2574.       2557.       2539.       2526.       2506.       2476.       2440.       2411.    
        2389.       2366.       2356.       2349.       2340.       2335.       2334.       2332.       2329.       2328.    
        2320.       2308.       2293.       2277.       2258.       2233.       2213.       2201.       2189.       2176.    
        2161.       2148.       2139.       2130.       2121.       2109.       2115.       2131.       2143.       2143.    
        2139.       2136.       2126.       2115.       2106.       2105.       2113.       2122.       2133.       2143.    
        2152.       2160.       2155.       2139.       2119.       2095.       2065.       2047.       2035.       2027.    
        2024.       2029.       2032.       2034.       2029.       2016.       2007.       1997.       1988.       1977.    
        1976.       1972.       1973.       1983.       1994.       2001.       1995.       1973.       1982.    
  48    2513.       2561.       2576.       2562.       2545.       2524.       2495.       2465.       2430.       2406.    
        2377.       2362.       2356.       2350.       2347.       2344.       2350.       2354.       2353.       2351.    
        2333.       2315.       2297.       2278.       2257.       2235.       2217.       2208.       2198.       2185.    
        2169.       2156.       2145.       2139.       2139.       2134.       2118.       2121.       2131.       2137.    
        2140.       2144.       2141.       2130.       2117.       2107.       2111.       2127.       2140.       2153.    
        2169.       2177.       2168.       2156.       2139.       2111.       2080.       2058.       2040.       2031.    
        2034.       2037.       2040.       2037.       2026.       2018.       2009.       2001.       1993.       1986.    
        1982.       1979.       1982.       1987.       1999.       2011.       2001.       1983.       1981.    
  49    2513.       2559.       2578.       2564.       2548.       2527.       2485.       2455.       2426.       2403.    
        2381.       2365.       2364.       2361.       2356.       2361.       2365.       2368.       2370.       2353.    
        2331.       2313.       2296.       2275.       2260.       2241.       2230.       2215.       2203.       2189.    
        2175.       2165.       2153.       2150.       2149.       2148.       2134.       2121.       2125.       2133.    
        2143.       2150.       2153.       2148.       2135.       2117.       2109.       2123.       2139.       2161.    
        2181.       2197.       2188.       2171.       2153.       2126.       2096.       2070.       2052.       2040.    
        2042.       2046.       2048.       2045.       2030.       2021.       2014.       2007.       1999.       1993.    
        1990.       1986.       1991.       1998.       2005.       2013.       2013.       1994.       1988.    
  50    2525.       2564.       2585.       2572.       2555.       2519.       2482.       2451.       2416.       2401.    
        2392.       2375.       2379.       2377.       2377.       2382.       2381.       2373.       2358.       2340.    
        2323.       2307.       2292.       2274.       2261.       2248.       2237.       2226.       2211.       2195.    
        2180.       2171.       2162.       2157.       2154.       2150.       2138.       2127.       2125.       2134.    
        2145.       2154.       2161.       2162.       2156.       2132.       2117.       2118.       2133.       2158.    
        2186.       2206.       2206.       2190.       2167.       2144.       2112.       2088.       2068.       2053.    
        2048.       2054.       2062.       2059.       2042.       2028.       2019.       2012.       2005.       2001.    
        1997.       1993.       2000.       2006.       2012.       2019.       2024.       2014.       2001.    
  51    2533.       2568.       2579.       2572.       2548.       2507.       2477.       2445.       2408.       2397.    
        2387.       2392.       2403.       2401.       2406.       2406.       2390.       2363.       2344.       2330.    
        2318.       2307.       2294.       2281.       2272.       2256.       2240.       2228.       2217.       2201.    
        2187.       2176.       2167.       2161.       2155.       2149.       2137.       2129.       2128.       2134.    
        2145.       2156.       2164.       2169.       2168.       2150.       2125.       2117.       2122.       2149.    
        2179.       2205.       2222.       2207.       2181.       2156.       2128.       2102.       2081.       2071.    
        2057.       2061.       2070.       2073.       2060.       2039.       2024.       2018.       2012.       2014.    
        2009.       1998.       2005.       2014.       2020.       2026.       2032.       2021.       2011.    
  52    2555.       2573.       2578.       2565.       2536.       2495.       2465.       2438.       2411.       2397.    
        2403.       2411.       2420.       2426.       2428.       2422.       2408.       2382.       2364.       2343.    
        2325.       2313.       2303.       2290.       2279.       2264.       2245.       2230.       2217.       2206.    
        2194.       2180.       2170.       2162.       2154.       2146.       2137.       2129.       2130.       2134.    
        2144.       2155.       2166.       2172.       2177.       2169.       2146.       2125.       2121.       2136.    
        2169.       2201.       2221.       2218.       2198.       2171.       2138.       2114.       2094.       2081.    
        2071.       2072.       2077.       2079.       2074.       2053.       2034.       2026.       2027.       2027.    
        2023.       2008.       2010.       2024.       2031.       2037.       2048.       2042.       2025.    
  53    2582.       2586.       2584.       2564.       2526.       2491.       2462.       2429.       2415.       2409.    
        2419.       2426.       2438.       2444.       2445.       2442.       2432.       2412.       2384.       2363.    
        2344.       2325.       2313.       2302.       2293.       2277.       2255.       2236.       2218.       2205.    
        2194.       2183.       2172.       2163.       2154.       2145.       2139.       2132.       2132.       2138.    
        2148.       2162.       2172.       2183.       2189.       2188.       2167.       2141.       2134.       2136.    
        2164.       2193.       2219.       2225.       2206.       2177.       2150.       2124.       2103.       2090.    
        2085.       2083.       2083.       2083.       2076.       2059.       2043.       2036.       2037.       2039.    
        2036.       2025.       2017.       2033.       2050.       2053.       2062.       2060.       2038.    
  54    2604.       2599.       2587.       2556.       2513.       2486.       2469.       2452.       2429.       2429.    
        2433.       2440.       2452.       2457.       2459.       2465.       2460.       2433.       2409.       2388.    
        2361.       2341.       2327.       2315.       2306.       2289.       2265.       2245.       2225.       2206.    
        2192.       2183.       2171.       2162.       2153.       2145.       2141.       2135.       2137.       2147.    
        2161.       2173.       2190.       2202.       2213.       2213.       2188.       2161.       2152.       2144.    
        2159.       2190.       2216.       2228.       2215.       2184.       2159.       2137.       2114.       2100.    
        2095.       2096.       2093.       2090.       2086.       2068.       2053.       2046.       2050.       2053.    
        2054.       2042.       2029.       2037.       2053.       2061.       2066.       2066.       2058.    
  55    2618.       2614.       2586.       2557.       2533.       2508.       2483.       2465.       2441.       2447.    
        2445.       2456.       2464.       2469.       2473.       2479.       2481.       2453.       2428.       2407.    
        2380.       2357.       2339.       2325.       2313.       2297.       2275.       2254.       2232.       2209.    
        2194.       2182.       2171.       2161.       2153.       2146.       2143.       2138.       2144.       2157.    
        2172.       2189.       2207.       2223.       2235.       2236.       2205.       2180.       2166.       2159.    
        2165.       2187.       2212.       2232.       2225.       2194.       2169.       2153.       2134.       2112.    
        2108.       2106.       2104.       2098.       2091.       2078.       2067.       2058.       2062.       2067.    
        2068.       2066.       2041.       2048.       2058.       2065.       2072.       2072.       2071.    
  56    2628.       2609.       2575.       2545.       2535.       2525.       2504.       2475.       2466.       2456.    
        2453.       2469.       2478.       2479.       2484.       2492.       2493.       2471.       2450.       2428.    
        2405.       2378.       2354.       2337.       2320.       2306.       2285.       2263.       2238.       2212.    
        2199.       2186.       2172.       2161.       2155.       2150.       2146.       2143.       2150.       2164.    
        2182.       2201.       2222.       2239.       2254.       2254.       2219.       2198.       2182.       2175.    
        2170.       2183.       2211.       2234.       2232.       2202.       2182.       2164.       2146.       2128.    
        2118.       2119.       2118.       2108.       2096.       2086.       2076.       2070.       2072.       2080.    
        2085.       2080.       2052.       2057.       2069.       2075.       2076.       2078.       2078.    
  57    2638.       2599.       2549.       2534.       2537.       2532.       2507.       2508.       2481.       2467.    
        2482.       2493.       2494.       2492.       2498.       2505.       2506.       2491.       2474.       2450.    
        2423.       2401.       2369.       2350.       2330.       2313.       2295.       2273.       2243.       2221.    
        2203.       2187.       2174.       2163.       2156.       2151.       2147.       2148.       2155.       2167.    
        2182.       2202.       2226.       2241.       2256.       2263.       2242.       2214.       2198.       2189.    
        2181.       2189.       2211.       2238.       2245.       2215.       2195.       2177.       2161.       2146.    
        2132.       2137.       2135.       2122.       2106.       2096.       2088.       2080.       2081.       2088.    
        2095.       2090.       2063.       2070.       2075.       2079.       2081.       2083.       2085.    
  58    2641.       2597.       2553.       2535.       2525.       2517.       2530.       2526.       2492.       2494.    
        2504.       2513.       2514.       2505.       2510.       2516.       2520.       2507.       2485.       2461.    
        2435.       2413.       2389.       2363.       2343.       2323.       2305.       2280.       2252.       2227.    
        2210.       2192.       2178.       2167.       2158.       2153.       2150.       2150.       2156.       2165.    
        2178.       2197.       2216.       2233.       2254.       2266.       2271.       2237.       2218.       2206.    
        2198.       2198.       2215.       2242.       2254.       2230.       2210.       2193.       2177.       2160.    
        2149.       2153.       2150.       2138.       2122.       2109.       2099.       2093.       2093.       2098.    
        2095.       2087.       2074.       2081.       2083.       2084.       2086.       2092.       2096.    
  59    2648.       2611.       2564.       2542.       2531.       2523.       2548.       2546.       2534.       2520.    
        2526.       2533.       2530.       2524.       2524.       2526.       2534.       2519.       2496.       2472.    
        2442.       2422.       2400.       2373.       2352.       2333.       2311.       2285.       2257.       2235.    
        2214.       2198.       2181.       2170.       2160.       2155.       2151.       2152.       2158.       2165.    
        2178.       2195.       2215.       2233.       2252.       2270.       2277.       2263.       2236.       2224.    
        2215.       2212.       2219.       2246.       2260.       2245.       2225.       2211.       2196.       2179.    
        2166.       2170.       2164.       2152.       2136.       2119.       2113.       2105.       2107.       2106.    
        2096.       2087.       2085.       2089.       2088.       2090.       2096.       2103.       2107.    
  60    2637.       2632.       2600.       2575.       2565.       2550.       2575.       2578.       2573.       2560.    
        2560.       2553.       2541.       2534.       2531.       2536.       2543.       2529.       2506.       2479.    
        2453.       2428.       2404.       2388.       2372.       2346.       2319.       2290.       2267.       2242.    
        2217.       2203.       2187.       2173.       2164.       2157.       2153.       2154.       2158.       2166.    
        2177.       2196.       2215.       2232.       2255.       2278.       2288.       2280.       2259.       2238.    
        2229.       2226.       2225.       2245.       2262.       2256.       2241.       2228.       2211.       2198.    
        2188.       2194.       2188.       2170.       2152.       2135.       2128.       2122.       2120.       2111.    
        2098.       2091.       2093.       2096.       2095.       2099.       2107.       2112.       2115.    
  61    2614.       2626.       2629.       2621.       2602.       2599.       2598.       2594.       2603.       2605.    
        2588.       2575.       2550.       2530.       2514.       2527.       2533.       2536.       2509.       2484.    
        2458.       2430.       2408.       2390.       2382.       2350.       2323.       2297.       2273.       2245.    
        2225.       2211.       2190.       2177.       2168.       2159.       2156.       2155.       2159.       2166.    
        2178.       2194.       2214.       2234.       2256.       2282.       2303.       2299.       2276.       2256.    
        2241.       2235.       2236.       2244.       2262.       2266.       2258.       2245.       2228.       2215.    
        2205.       2211.       2211.       2189.       2170.       2154.       2142.       2133.       2127.       2112.    
        2103.       2097.       2101.       2103.       2103.       2110.       2116.       2119.       2122.    
  62    2586.       2600.       2623.       2626.       2614.       2601.       2597.       2594.       2604.       2619.    
        2600.       2562.       2524.       2493.       2474.       2479.       2505.       2517.       2509.       2487.    
        2461.       2433.       2407.       2392.       2377.       2349.       2328.       2303.       2276.       2251.    
        2230.       2213.       2195.       2181.       2171.       2163.       2159.       2157.       2159.       2167.    
        2178.       2193.       2214.       2232.       2253.       2280.       2306.       2313.       2301.       2273.    
        2257.       2247.       2246.       2248.       2260.       2274.       2274.       2263.       2249.       2235.    
        2219.       2229.       2226.       2210.       2189.       2172.       2158.       2142.       2127.       2116.    
        2107.       2106.       2109.       2108.       2112.       2117.       2123.       2127.       2130.    
  63    2552.       2587.       2612.       2622.       2608.       2582.       2581.       2575.       2586.       2606.    
        2585.       2541.       2500.       2459.       2437.       2437.       2460.       2467.       2485.       2489.    
        2464.       2429.       2407.       2391.       2377.       2352.       2331.       2307.       2283.       2253.    
        2233.       2218.       2203.       2184.       2173.       2166.       2162.       2159.       2162.       2168.    
        2177.       2192.       2211.       2229.       2252.       2272.       2298.       2321.       2318.       2298.    
        2271.       2261.       2256.       2255.       2265.       2278.       2289.       2283.       2272.       2264.    
        2252.       2250.       2247.       2229.       2211.       2187.       2167.       2151.       2135.       2120.    
        2112.       2113.       2114.       2115.       2118.       2124.       2129.       2134.       2138.    
  64    2516.       2548.       2583.       2602.       2609.       2572.       2542.       2532.       2548.       2588.    
        2571.       2527.       2480.       2433.       2397.       2397.       2408.       2417.       2458.       2475.    
        2461.       2427.       2401.       2385.       2379.       2359.       2337.       2314.       2291.       2259.    
        2240.       2221.       2208.       2193.       2176.       2168.       2164.       2162.       2163.       2167.    
        2177.       2189.       2208.       2226.       2247.       2270.       2294.       2316.       2328.       2320.    
        2297.       2281.       2276.       2268.       2270.       2281.       2294.       2302.       2298.       2287.    
        2278.       2274.       2265.       2251.       2230.       2201.       2173.       2155.       2139.       2125.    
        2119.       2119.       2120.       2120.       2123.       2128.       2135.       2142.       2147.    
  65    2459.       2505.       2549.       2580.       2564.       2551.       2512.       2483.       2506.       2534.    
        2563.       2511.       2463.       2407.       2368.       2348.       2353.       2372.       2407.       2435.    
        2455.       2421.       2378.       2359.       2368.       2360.       2339.       2315.       2296.       2267.    
        2239.       2217.       2210.       2197.       2184.       2171.       2166.       2164.       2164.       2168.    
        2175.       2188.       2203.       2220.       2242.       2263.       2286.       2315.       2331.       2331.    
        2320.       2310.       2305.       2289.       2277.       2282.       2295.       2310.       2316.       2308.    
        2301.       2292.       2278.       2262.       2240.       2211.       2181.       2157.       2144.       2131.    
        2128.       2126.       2127.       2127.       2127.       2133.       2139.       2146.       2151.    
  66    2415.       2457.       2502.       2510.       2493.       2493.       2464.       2426.       2453.       2482.    
        2519.       2515.       2448.       2396.       2352.       2312.       2302.       2333.       2360.       2393.    
        2423.       2401.       2361.       2327.       2320.       2326.       2330.       2318.       2293.       2269.    
        2242.       2207.       2190.       2193.       2187.       2176.       2170.       2168.       2164.       2167.    
        2174.       2185.       2198.       2215.       2233.       2254.       2277.       2299.       2316.       2333.    
        2328.       2325.       2324.       2307.       2292.       2288.       2298.       2315.       2329.       2326.    
        2318.       2304.       2289.       2268.       2246.       2215.       2184.       2163.       2151.       2143.    
        2141.       2136.       2135.       2132.       2130.       2134.       2141.       2147.       2155.    
  67    2375.       2416.       2443.       2450.       2439.       2424.       2402.       2377.       2404.       2431.    
        2471.       2484.       2439.       2385.       2331.       2288.       2258.       2285.       2316.       2348.    
        2368.       2360.       2334.       2286.       2263.       2269.       2283.       2296.       2284.       2270.    
        2227.       2190.       2166.       2168.       2176.       2178.       2173.       2171.       2164.       2164.    
        2170.       2178.       2191.       2205.       2222.       2241.       2261.       2278.       2297.       2310.    
        2320.       2322.       2332.       2322.       2304.       2296.       2301.       2315.       2334.       2339.    
        2330.       2317.       2292.       2272.       2250.       2220.       2193.       2168.       2159.       2154.    
        2146.       2141.       2136.       2132.       2131.       2135.       2141.       2148.       2158.    
  68    2343.       2386.       2380.       2393.       2396.       2369.       2349.       2328.       2356.       2382.    
        2414.       2423.       2391.       2353.       2303.       2255.       2219.       2243.       2272.       2301.    
        2308.       2290.       2303.       2269.       2205.       2214.       2218.       2235.       2238.       2212.    
        2203.       2163.       2136.       2138.       2145.       2154.       2161.       2161.       2160.       2159.    
        2160.       2169.       2179.       2191.       2211.       2224.       2242.       2261.       2275.       2286.    
        2300.       2316.       2330.       2330.       2314.       2304.       2301.       2311.       2327.       2347.    
        2336.       2322.       2300.       2278.       2256.       2226.       2200.       2179.       2169.       2158.    
        2148.       2140.       2133.       2131.       2130.       2135.       2140.       2147.       2152.    
  69    2318.       2343.       2319.       2338.       2333.       2319.       2305.       2280.       2311.       2339.    
        2352.       2371.       2346.       2313.       2270.       2224.       2190.       2201.       2224.       2249.    
        2240.       2221.       2227.       2254.       2168.       2154.       2155.       2161.       2167.       2148.    
        2156.       2141.       2097.       2089.       2103.       2098.       2126.       2138.       2136.       2136.    
        2139.       2157.       2165.       2175.       2188.       2199.       2218.       2236.       2254.       2269.    
        2287.       2308.       2324.       2336.       2320.       2306.       2300.       2308.       2319.       2337.    
        2349.       2331.       2310.       2288.       2265.       2237.       2212.       2193.       2176.       2159.    
        2147.       2136.       2129.       2125.       2128.       2134.       2137.       2141.       2142.    
  70    2269.       2289.       2276.       2286.       2280.       2270.       2256.       2241.       2266.       2278.    
        2292.       2310.       2302.       2259.       2229.       2197.       2155.       2157.       2179.       2185.    
        2169.       2174.       2172.       2148.       2120.       2092.       2096.       2103.       2101.       2087.    
        2102.       2094.       2064.       2046.       2057.       2058.       2082.       2093.       2100.       2099.    
        2121.       2136.       2143.       2152.       2165.       2172.       2185.       2208.       2228.       2249.    
        2267.       2291.       2314.       2337.       2321.       2302.       2293.       2303.       2313.       2327.    
        2341.       2345.       2324.       2300.       2278.       2247.       2227.       2207.       2185.       2164.    
        2146.       2134.       2121.       2120.       2126.       2130.       2127.       2128.       2127.    
  71    2227.       2236.       2238.       2242.       2235.       2228.       2218.       2207.       2219.       2223.    
        2235.       2242.       2243.       2218.       2188.       2164.       2123.       2117.       2133.       2134.    
        2122.       2126.       2108.       2093.       2074.       2043.       2044.       2054.       2055.       2036.    
        2057.       2044.       2022.       2014.       2017.       2021.       2035.       2044.       2054.       2054.    
        2085.       2105.       2102.       2114.       2130.       2144.       2157.       2179.       2202.       2224.    
        2242.       2270.       2300.       2320.       2315.       2296.       2289.       2297.       2302.       2314.    
        2327.       2336.       2339.       2313.       2291.       2255.       2242.       2221.       2199.       2171.    
        2149.       2129.       2115.       2116.       2124.       2124.       2119.       2117.       2112.    



                       INITIAL HEAD FOR LAYER   2
 READING ON UNIT    8 WITH FORMAT: (FREE)              

            1           2           3           4           5           6           7           8           9          10
           11          12          13          14          15          16          17          18          19          20
           21          22          23          24          25          26          27          28          29          30
           31          32          33          34          35          36          37          38          39          40
           41          42          43          44          45          46          47          48          49          50
           51          52          53          54          55          56          57          58          59          60
           61          62          63          64          65          66          67          68          69          70
           71          72          73          74          75          76          77          78          79
 ........................................................................................................................
   1    2322.       2303.       2280.       2256.       2234.       2234.       2244.       2253.       2239.       2220.    
        2204.       2191.       2173.       2161.       2156.       2155.       2155.       2156.       2157.       2157.    
        2166.       2177.       2182.       2176.       2164.       2152.       2145.       2147.       2149.       2148.    
        2146.       2135.       2106.       2095.       2105.       2123.       2148.       2161.       2151.       2139.    
        2133.       2130.       2127.       2124.       2122.       2120.       2120.       2130.       2144.       2154.    
        2164.       2173.       2163.       2141.       2133.       2130.       2125.       2116.       2109.       2107.    
        2104.       2106.       2109.       2117.       2126.       2132.       2125.       2111.       2095.       2085.    
        2074.       2066.       2059.       2054.       2051.       2052.       2061.       2057.       2043.    
   2    2339.       2319.       2292.       2270.       2248.       2243.       2256.       2264.       2249.       2234.    
        2220.       2204.       2192.       2175.       2161.       2157.       2157.       2160.       2167.       2174.    
        2187.       2190.       2189.       2171.       2154.       2146.       2144.       2146.       2149.       2152.    
        2149.       2133.       2107.       2101.       2110.       2127.       2142.       2163.       2160.       2149.    
        2136.       2131.       2128.       2124.       2121.       2120.       2121.       2130.       2146.       2158.    
        2167.       2171.       2157.       2132.       2123.       2123.       2121.       2114.       2111.       2110.    
        2109.       2108.       2110.       2119.       2127.       2135.       2131.       2118.       2102.       2090.    
        2081.       2071.       2062.       2055.       2051.       2052.       2056.       2061.       2060.    
   3    2343.       2324.       2304.       2285.       2261.       2254.       2265.       2279.       2262.       2246.    
        2232.       2219.       2204.       2193.       2175.       2164.       2165.       2173.       2183.       2196.    
        2196.       2197.       2181.       2162.       2145.       2143.       2143.       2145.       2148.       2150.    
        2144.       2121.       2109.       2102.       2112.       2128.       2145.       2163.       2168.       2155.    
        2141.       2133.       2129.       2126.       2123.       2120.       2121.       2132.       2148.       2157.    
        2163.       2164.       2149.       2122.       2121.       2120.       2118.       2114.       2112.       2114.    
        2113.       2111.       2112.       2120.       2128.       2131.       2125.       2114.       2102.       2093.    
        2083.       2072.       2063.       2052.       2047.       2047.       2053.       2062.       2059.    
   4    2344.       2329.       2310.       2293.       2282.       2269.       2272.       2285.       2275.       2258.    
        2242.       2227.       2215.       2200.       2190.       2174.       2174.       2181.       2188.       2192.    
        2196.       2185.       2167.       2150.       2144.       2141.       2142.       2143.       2143.       2141.    
        2128.       2118.       2110.       2108.       2117.       2126.       2142.       2158.       2171.       2159.    
        2147.       2134.       2131.       2129.       2124.       2122.       2125.       2135.       2145.       2152.    
        2158.       2157.       2138.       2121.       2120.       2118.       2116.       2114.       2114.       2119.    
        2119.       2116.       2116.       2121.       2127.       2128.       2121.       2112.       2101.       2093.    
        2088.       2078.       2065.       2050.       2045.       2042.       2045.       2047.       2035.    
   5    2346.       2332.       2318.       2307.       2303.       2288.       2278.       2285.       2282.       2267.    
        2248.       2234.       2220.       2213.       2202.       2183.       2181.       2181.       2184.       2184.    
        2180.       2167.       2147.       2140.       2135.       2140.       2139.       2138.       2137.       2133.    
        2124.       2117.       2110.       2115.       2123.       2127.       2136.       2153.       2172.       2162.    
        2152.       2141.       2135.       2133.       2129.       2126.       2128.       2134.       2142.       2149.    
        2154.       2151.       2131.       2120.       2118.       2118.       2116.       2116.       2119.       2123.    
        2124.       2122.       2119.       2122.       2126.       2126.       2120.       2110.       2099.       2096.    
        2091.       2080.       2068.       2056.       2048.       2040.       2035.       2029.       2017.    
   6    2340.       2333.       2326.       2321.       2317.       2302.       2289.       2288.       2284.       2273.    
        2255.       2236.       2230.       2226.       2212.       2198.       2189.       2187.       2178.       2169.    
        2164.       2148.       2137.       2132.       2137.       2137.       2137.       2135.       2133.       2123.    
        2118.       2113.       2113.       2119.       2125.       2131.       2141.       2153.       2170.       2167.    
        2161.       2151.       2141.       2135.       2133.       2129.       2132.       2136.       2142.       2148.    
        2152.       2149.       2132.       2121.       2119.       2116.       2114.       2116.       2120.       2123.    
        2125.       2123.       2120.       2122.       2124.       2125.       2122.       2113.       2108.       2102.    
        2090.       2075.       2068.       2064.       2064.       2053.       2035.       2028.       2017.    
   7    2340.       2334.       2328.       2329.       2318.       2305.       2293.       2289.       2285.       2277.    
        2262.       2243.       2238.       2239.       2235.       2214.       2200.       2195.       2171.       2161.    
        2151.       2139.       2132.       2126.       2132.       2134.       2134.       2131.       2126.       2119.    
        2115.       2113.       2118.       2123.       2127.       2135.       2143.       2155.       2171.       2169.    
        2164.       2156.       2145.       2141.       2139.       2133.       2134.       2138.       2145.       2149.    
        2155.       2151.       2136.       2132.       2120.       2113.       2111.       2114.       2119.       2122.    
        2126.       2124.       2121.       2119.       2122.       2123.       2122.       2118.       2113.       2108.    
        2099.       2077.       2071.       2072.       2071.       2062.       2053.       2040.       2030.    
   8    2340.       2336.       2333.       2336.       2325.       2310.       2297.       2291.       2285.       2278.    
        2261.       2248.       2245.       2246.       2240.       2226.       2208.       2193.       2172.       2157.    
        2144.       2135.       2129.       2124.       2122.       2122.       2126.       2126.       2122.       2118.    
        2114.       2117.       2123.       2126.       2131.       2136.       2147.       2160.       2171.       2170.    
        2166.       2162.       2151.       2148.       2149.       2138.       2137.       2143.       2150.       2155.    
        2160.       2158.       2146.       2136.       2120.       2109.       2109.       2111.       2117.       2123.    
        2126.       2125.       2122.       2117.       2116.       2117.       2117.       2118.       2117.       2120.    
        2113.       2094.       2085.       2084.       2081.       2077.       2074.       2060.       2036.    
   9    2341.       2338.       2335.       2343.       2330.       2314.       2301.       2293.       2285.       2280.    
        2267.       2256.       2254.       2248.       2240.       2229.       2210.       2194.       2174.       2159.    
        2148.       2135.       2125.       2122.       2121.       2120.       2120.       2120.       2119.       2116.    
        2115.       2119.       2125.       2131.       2135.       2138.       2151.       2169.       2177.       2175.    
        2170.       2166.       2158.       2156.       2153.       2144.       2143.       2146.       2151.       2156.    
        2160.       2152.       2141.       2132.       2121.       2110.       2106.       2108.       2110.       2119.    
        2125.       2125.       2122.       2116.       2110.       2108.       2111.       2116.       2120.       2125.    
        2125.       2118.       2115.       2113.       2103.       2074.       2065.       2049.       2031.    
  10    2342.       2339.       2334.       2336.       2330.       2315.       2302.       2293.       2289.       2282.    
        2267.       2265.       2259.       2251.       2243.       2230.       2212.       2195.       2177.       2163.    
        2148.       2132.       2122.       2121.       2120.       2119.       2119.       2118.       2117.       2115.    
        2116.       2120.       2125.       2132.       2138.       2143.       2152.       2175.       2185.       2182.    
        2179.       2172.       2167.       2165.       2157.       2147.       2148.       2150.       2151.       2151.    
        2154.       2147.       2140.       2130.       2117.       2111.       2106.       2107.       2108.       2115.    
        2120.       2121.       2119.       2116.       2111.       2099.       2106.       2115.       2122.       2127.    
        2130.       2129.       2128.       2120.       2100.       2070.       2056.       2044.       2030.    
  11    2341.       2337.       2333.       2329.       2322.       2316.       2310.       2301.       2293.       2290.    
        2279.       2273.       2265.       2257.       2250.       2231.       2215.       2197.       2177.       2161.    
        2141.       2130.       2122.       2122.       2122.       2121.       2120.       2118.       2116.       2116.    
        2117.       2120.       2126.       2134.       2141.       2146.       2158.       2171.       2183.       2185.    
        2186.       2181.       2182.       2172.       2160.       2156.       2156.       2152.       2150.       2148.    
        2146.       2143.       2139.       2130.       2118.       2111.       2106.       2105.       2105.       2108.    
        2112.       2112.       2113.       2112.       2107.       2097.       2104.       2112.       2119.       2125.    
        2130.       2131.       2128.       2122.       2100.       2072.       2057.       2044.       2035.    
  12    2341.       2339.       2337.       2333.       2329.       2329.       2322.       2314.       2305.       2302.    
        2292.       2280.       2275.       2271.       2254.       2232.       2219.       2195.       2167.       2148.    
        2135.       2123.       2121.       2122.       2122.       2123.       2122.       2120.       2117.       2117.    
        2117.       2120.       2128.       2137.       2147.       2154.       2166.       2183.       2188.       2184.    
        2186.       2187.       2181.       2172.       2167.       2163.       2160.       2156.       2152.       2146.    
        2143.       2137.       2136.       2135.       2121.       2112.       2108.       2103.       2101.       2102.    
        2104.       2106.       2107.       2106.       2101.       2094.       2097.       2105.       2112.       2123.    
        2128.       2128.       2125.       2123.       2113.       2090.       2063.       2053.       2047.    
  13    2343.       2341.       2341.       2340.       2337.       2335.       2330.       2326.       2322.       2320.    
        2309.       2296.       2277.       2254.       2238.       2229.       2208.       2179.       2150.       2137.    
        2126.       2120.       2117.       2117.       2118.       2122.       2119.       2118.       2118.       2117.    
        2118.       2121.       2131.       2145.       2158.       2173.       2181.       2189.       2188.       2185.    
        2184.       2182.       2171.       2167.       2165.       2164.       2161.       2157.       2150.       2144.    
        2139.       2134.       2131.       2128.       2122.       2114.       2108.       2102.       2098.       2096.    
        2097.       2098.       2103.       2101.       2096.       2088.       2089.       2096.       2108.       2121.    
        2123.       2124.       2121.       2117.       2110.       2098.       2079.       2061.       2048.    
  14    2355.       2346.       2346.       2345.       2344.       2343.       2342.       2335.       2322.       2308.    
        2283.       2259.       2237.       2223.       2217.       2206.       2185.       2164.       2135.       2122.    
        2118.       2117.       2117.       2117.       2117.       2117.       2117.       2117.       2117.       2118.    
        2118.       2122.       2142.       2156.       2172.       2184.       2194.       2193.       2188.       2178.    
        2172.       2168.       2158.       2157.       2157.       2161.       2160.       2155.       2148.       2142.    
        2137.       2132.       2128.       2124.       2120.       2116.       2110.       2104.       2098.       2092.    
        2092.       2094.       2097.       2097.       2089.       2081.       2080.       2087.       2098.       2113.    
        2116.       2118.       2118.       2114.       2108.       2102.       2085.       2064.       2052.    
  15    2370.       2352.       2345.       2345.       2335.       2329.       2321.       2315.       2294.       2264.    
        2241.       2213.       2192.       2190.       2185.       2171.       2152.       2133.       2118.       2117.    
        2117.       2117.       2117.       2117.       2117.       2117.       2117.       2117.       2117.       2117.    
        2118.       2127.       2149.       2166.       2187.       2196.       2196.       2197.       2186.       2178.    
        2170.       2153.       2145.       2142.       2143.       2150.       2152.       2151.       2146.       2140.    
        2134.       2129.       2124.       2120.       2116.       2113.       2111.       2106.       2100.       2091.    
        2087.       2090.       2092.       2090.       2087.       2078.       2073.       2078.       2085.       2097.    
        2105.       2110.       2114.       2114.       2113.       2109.       2095.       2073.       2053.    
  16    2350.       2330.       2311.       2306.       2293.       2282.       2261.       2269.       2241.       2213.    
        2195.       2169.       2154.       2153.       2142.       2128.       2118.       2117.       2117.       2117.    
        2117.       2117.       2117.       2117.       2117.       2117.       2117.       2117.       2117.       2117.    
        2122.       2143.       2162.       2186.       2203.       2205.       2207.       2195.       2186.       2175.    
        2164.       2155.       2150.       2146.       2131.       2136.       2137.       2140.       2139.       2136.    
        2132.       2125.       2120.       2115.       2111.       2109.       2107.       2105.       2101.       2097.    
        2083.       2086.       2089.       2088.       2086.       2078.       2070.       2070.       2072.       2084.    
        2092.       2102.       2109.       2110.       2110.       2105.       2098.       2076.       2056.    
  17    2301.       2283.       2267.       2257.       2242.       2227.       2213.       2203.       2183.       2168.    
        2145.       2130.       2121.       2117.       2117.       2117.       2117.       2117.       2117.       2117.    
        2117.       2117.       2117.       2117.       2117.       2117.       2117.       2117.       2117.       2119.    
        2144.       2166.       2191.       2205.       2211.       2208.       2202.       2186.       2179.       2170.    
        2158.       2155.       2152.       2148.       2135.       2124.       2122.       2122.       2129.       2129.    
        2125.       2119.       2113.       2110.       2108.       2106.       2105.       2103.       2100.       2097.    
        2083.       2082.       2087.       2085.       2078.       2067.       2065.       2062.       2063.       2069.    
        2077.       2093.       2101.       2103.       2102.       2098.       2091.       2077.       2055.    
  18    2256.       2235.       2222.       2207.       2192.       2183.       2164.       2150.       2133.       2122.    
        2117.       2117.       2117.       2117.       2117.       2117.       2117.       2117.       2117.       2117.    
        2117.       2117.       2117.       2117.       2117.       2117.       2117.       2117.       2127.       2150.    
        2176.       2199.       2213.       2221.       2214.       2207.       2194.       2182.       2174.       2167.    
        2158.       2155.       2150.       2146.       2133.       2126.       2117.       2105.       2115.       2120.    
        2117.       2111.       2108.       2104.       2102.       2102.       2102.       2101.       2099.       2093.    
        2086.       2073.       2078.       2075.       2067.       2060.       2060.       2057.       2057.       2056.    
        2066.       2081.       2091.       2096.       2097.       2091.       2083.       2074.       2052.    
  19    2212.       2190.       2180.       2166.       2152.       2138.       2122.       2117.       2117.       2117.    
        2117.       2117.       2117.       2117.       2117.       2117.       2117.       2117.       2117.       2117.    
        2117.       2117.       2117.       2117.       2117.       2117.       2118.       2129.       2154.       2185.    
        2209.       2214.       2230.       2220.       2208.       2210.       2195.       2184.       2181.       2172.    
        2163.       2157.       2151.       2147.       2139.       2133.       2117.       2092.       2099.       2108.    
        2109.       2103.       2102.       2099.       2097.       2098.       2100.       2100.       2098.       2089.    
        2081.       2071.       2063.       2063.       2060.       2055.       2057.       2056.       2056.       2056.    
        2058.       2070.       2084.       2096.       2100.       2091.       2082.       2071.       2052.    
  20    2178.       2163.       2147.       2134.       2124.       2117.       2117.       2117.       2117.       2117.    
        2117.       2117.       2117.       2117.       2117.       2117.       2117.       2117.       2117.       2117.    
        2117.       2117.       2117.       2117.       2117.       2120.       2134.       2155.       2184.       2196.    
        2208.       2230.       2224.       2219.       2227.       2228.       2210.       2199.       2187.       2179.    
        2172.       2159.       2149.       2146.       2138.       2132.       2113.       2087.       2089.       2095.    
        2099.       2095.       2095.       2093.       2093.       2094.       2098.       2097.       2092.       2084.    
        2077.       2069.       2060.       2054.       2055.       2053.       2056.       2059.       2060.       2062.    
        2060.       2067.       2083.       2110.       2114.       2097.       2082.       2070.       2051.    
  21    2154.       2141.       2125.       2118.       2117.       2117.       2117.       2117.       2117.       2117.    
        2117.       2117.       2117.       2117.       2117.       2117.       2117.       2117.       2117.       2117.    
        2117.       2117.       2117.       2117.       2119.       2140.       2159.       2177.       2194.       2198.    
        2231.       2229.       2230.       2239.       2243.       2230.       2210.       2194.       2179.       2168.    
        2158.       2148.       2139.       2131.       2124.       2116.       2100.       2077.       2074.       2081.    
        2087.       2085.       2085.       2085.       2088.       2091.       2095.       2092.       2085.       2080.    
        2075.       2067.       2060.       2051.       2051.       2052.       2061.       2065.       2073.       2073.    
        2070.       2070.       2082.       2097.       2107.       2105.       2086.       2073.       2056.    
  22    2136.       2120.       2117.       2117.       2117.       2117.       2117.       2117.       2117.       2117.    
        2117.       2117.       2117.       2117.       2117.       2117.       2117.       2117.       2117.       2117.    
        2117.       2117.       2117.       2125.       2146.       2167.       2187.       2206.       2221.       2235.    
        2235.       2237.       2248.       2245.       2232.       2215.       2199.       2183.       2171.       2162.    
        2151.       2138.       2126.       2114.       2100.       2092.       2075.       2065.       2060.       2068.    
        2077.       2077.       2076.       2080.       2085.       2088.       2091.       2087.       2081.       2075.    
        2071.       2066.       2061.       2051.       2048.       2051.       2058.       2065.       2070.       2075.    
        2080.       2077.       2077.       2087.       2100.       2108.       2099.       2076.       2063.    
  23    2118.       2117.       2117.       2117.       2117.       2117.       2117.       2117.       2117.       2117.    
        2117.       2117.       2117.       2117.       2117.       2117.       2117.       2117.       2117.       2117.    
        2117.       2117.       2132.       2150.       2175.       2197.       2217.       2241.       2239.       2244.    
        2254.       2257.       2243.       2230.       2216.       2201.       2185.       2173.       2160.       2150.    
        2144.       2136.       2123.       2111.       2092.       2073.       2062.       2055.       2049.       2060.    
        2067.       2067.       2069.       2074.       2082.       2085.       2089.       2088.       2079.       2071.    
        2069.       2065.       2061.       2050.       2045.       2047.       2053.       2062.       2070.       2077.    
        2086.       2078.       2075.       2081.       2094.       2104.       2098.       2079.       2068.    
  24    2117.       2117.       2117.       2117.       2117.       2117.       2117.       2117.       2117.       2117.    
        2117.       2117.       2117.       2117.       2117.       2117.       2117.       2117.       2117.       2117.    
        2124.       2143.       2165.       2185.       2205.       2232.       2260.       2257.       2253.       2258.    
        2251.       2240.       2226.       2212.       2199.       2182.       2169.       2156.       2145.       2136.    
        2129.       2119.       2111.       2105.       2093.       2075.       2059.       2047.       2040.       2050.    
        2054.       2054.       2059.       2073.       2077.       2081.       2085.       2086.       2077.       2071.    
        2066.       2065.       2062.       2048.       2045.       2045.       2047.       2056.       2067.       2077.    
        2087.       2080.       2065.       2069.       2078.       2093.       2081.       2070.       2062.    
  25    2117.       2117.       2117.       2117.       2117.       2117.       2117.       2117.       2117.       2117.    
        2117.       2117.       2117.       2117.       2117.       2117.       2119.       2117.       2122.       2133.    
        2155.       2176.       2196.       2217.       2235.       2259.       2274.       2265.       2240.       2229.    
        2229.       2218.       2207.       2196.       2181.       2168.       2155.       2139.       2126.       2119.    
        2113.       2106.       2097.       2092.       2087.       2077.       2058.       2045.       2035.       2038.    
        2042.       2043.       2049.       2064.       2071.       2074.       2078.       2081.       2075.       2065.    
        2062.       2062.       2062.       2057.       2049.       2049.       2045.       2048.       2059.       2068.    
        2079.       2075.       2056.       2053.       2058.       2062.       2064.       2061.       2053.    
  26    2117.       2117.       2117.       2117.       2117.       2117.       2117.       2117.       2117.       2117.    
        2117.       2117.       2117.       2117.       2117.       2126.       2131.       2134.       2150.       2168.    
        2185.       2210.       2234.       2255.       2274.       2274.       2259.       2237.       2212.       2203.    
        2202.       2196.       2187.       2177.       2164.       2151.       2135.       2119.       2108.       2103.    
        2098.       2088.       2083.       2079.       2077.       2072.       2061.       2042.       2033.       2026.    
        2027.       2032.       2040.       2053.       2064.       2068.       2071.       2074.       2070.       2061.    
        2057.       2059.       2058.       2058.       2057.       2050.       2049.       2042.       2049.       2058.    
        2065.       2062.       2046.       2036.       2036.       2043.       2051.       2052.       2046.    
  27    2117.       2117.       2117.       2117.       2117.       2117.       2117.       2117.       2117.       2117.    
        2117.       2117.       2119.       2125.       2134.       2148.       2154.       2172.       2188.       2203.    
        2226.       2247.       2275.       2286.       2273.       2252.       2235.       2217.       2193.       2175.    
        2179.       2176.       2170.       2159.       2147.       2130.       2112.       2101.       2095.       2088.    
        2080.       2074.       2068.       2068.       2067.       2066.       2058.       2046.       2037.       2026.    
        2019.       2023.       2031.       2043.       2058.       2062.       2064.       2065.       2061.       2056.    
        2052.       2052.       2053.       2057.       2057.       2054.       2052.       2041.       2043.       2048.    
        2052.       2051.       2044.       2033.       2032.       2034.       2038.       2042.       2038.    
  28    2117.       2117.       2117.       2117.       2117.       2117.       2117.       2117.       2119.       2125.    
        2129.       2135.       2146.       2155.       2164.       2181.       2197.       2217.       2229.       2247.    
        2264.       2274.       2283.       2273.       2250.       2229.       2213.       2198.       2179.       2166.    
        2163.       2162.       2154.       2142.       2129.       2113.       2097.       2088.       2080.       2072.    
        2064.       2060.       2056.       2057.       2058.       2058.       2054.       2048.       2039.       2028.    
        2014.       2017.       2023.       2036.       2047.       2052.       2056.       2056.       2053.       2051.    
        2046.       2046.       2046.       2053.       2057.       2057.       2055.       2039.       2036.       2042.    
        2045.       2045.       2042.       2034.       2027.       2028.       2032.       2035.       2036.    
  29    2117.       2117.       2117.       2117.       2117.       2117.       2118.       2134.       2143.       2147.    
        2156.       2165.       2171.       2189.       2203.       2221.       2242.       2268.       2277.       2294.    
        2296.       2277.       2269.       2250.       2225.       2207.       2194.       2181.       2170.       2159.    
        2151.       2147.       2138.       2127.       2115.       2099.       2086.       2076.       2067.       2060.    
        2053.       2047.       2045.       2048.       2048.       2049.       2050.       2045.       2039.       2028.    
        2016.       2009.       2017.       2029.       2038.       2041.       2046.       2045.       2046.       2046.    
        2039.       2039.       2040.       2049.       2057.       2056.       2052.       2042.       2029.       2037.    
        2040.       2040.       2039.       2034.       2024.       2025.       2030.       2037.       2038.    
  30    2117.       2117.       2117.       2117.       2117.       2122.       2147.       2161.       2166.       2173.    
        2186.       2197.       2214.       2231.       2253.       2263.       2284.       2302.       2314.       2312.    
        2283.       2263.       2245.       2223.       2202.       2188.       2177.       2168.       2158.       2150.    
        2146.       2135.       2125.       2117.       2105.       2091.       2076.       2064.       2057.       2048.    
        2042.       2037.       2035.       2038.       2039.       2040.       2043.       2039.       2034.       2027.    
        2014.       2004.       2012.       2026.       2029.       2030.       2034.       2034.       2039.       2040.    
        2034.       2032.       2035.       2044.       2053.       2050.       2045.       2041.       2023.       2027.    
        2036.       2036.       2035.       2028.       2023.       2023.       2029.       2037.       2041.    
  31    2117.       2117.       2117.       2117.       2131.       2155.       2176.       2191.       2194.       2202.    
        2221.       2235.       2262.       2285.       2312.       2313.       2318.       2320.       2318.       2297.    
        2271.       2243.       2219.       2202.       2185.       2174.       2166.       2156.       2147.       2140.    
        2135.       2128.       2114.       2108.       2100.       2085.       2068.       2057.       2048.       2042.    
        2036.       2031.       2029.       2029.       2031.       2033.       2034.       2034.       2029.       2023.    
        2010.       1999.       2007.       2019.       2020.       2020.       2022.       2026.       2033.       2033.    
        2027.       2023.       2030.       2039.       2046.       2044.       2038.       2036.       2025.       2011.    
        2022.       2029.       2030.       2025.       2021.       2022.       2026.       2037.       2040.    
  32    2117.       2117.       2120.       2142.       2163.       2187.       2220.       2234.       2226.       2232.    
        2249.       2277.       2319.       2340.       2350.       2347.       2336.       2318.       2297.       2282.    
        2257.       2229.       2203.       2180.       2170.       2162.       2154.       2146.       2138.       2131.    
        2125.       2120.       2109.       2102.       2094.       2081.       2065.       2051.       2044.       2037.    
        2030.       2025.       2023.       2022.       2023.       2025.       2027.       2027.       2026.       2020.    
        2007.       1997.       1997.       2003.       2006.       2009.       2011.       2018.       2023.       2023.    
        2017.       2013.       2023.       2031.       2039.       2038.       2032.       2030.       2020.       2005.    
        2015.       2025.       2027.       2023.       2019.       2019.       2024.       2029.       2030.    
  33    2117.       2129.       2154.       2173.       2202.       2233.       2288.       2272.       2260.       2271.    
        2284.       2314.       2344.       2361.       2377.       2363.       2326.       2301.       2284.       2270.    
        2248.       2222.       2192.       2168.       2159.       2153.       2144.       2136.       2130.       2123.    
        2117.       2113.       2108.       2100.       2086.       2073.       2060.       2049.       2038.       2039.    
        2037.       2031.       2024.       2019.       2017.       2017.       2017.       2019.       2020.       2015.    
        2007.       1997.       1991.       1991.       1994.       1995.       1999.       2005.       2008.       2007.    
        2004.       2005.       2013.       2022.       2028.       2027.       2026.       2025.       2010.       2003.    
        2015.       2022.       2023.       2021.       2016.       2013.       2017.       2020.       2017.    
  34    2135.       2161.       2191.       2215.       2250.       2283.       2322.       2304.       2303.       2306.    
        2311.       2331.       2357.       2384.       2381.       2352.       2317.       2291.       2277.       2265.    
        2243.       2217.       2192.       2169.       2151.       2143.       2133.       2128.       2122.       2116.    
        2111.       2107.       2099.       2092.       2083.       2064.       2054.       2046.       2049.       2049.    
        2050.       2044.       2033.       2022.       2016.       2011.       2007.       2001.       2008.       2007.    
        2003.       1998.       1991.       1987.       1985.       1984.       1986.       1989.       1992.       1994.    
        1989.       1997.       2003.       2011.       2014.       2011.       2006.       2006.       1986.       1995.    
        2005.       2014.       2016.       2018.       2014.       2009.       2009.       2012.       2010.    
  35    2164.       2192.       2228.       2261.       2305.       2337.       2360.       2344.       2340.       2334.    
        2332.       2345.       2367.       2379.       2363.       2346.       2318.       2281.       2270.       2258.    
        2234.       2214.       2193.       2172.       2153.       2141.       2132.       2124.       2115.       2110.    
        2104.       2099.       2091.       2081.       2067.       2062.       2054.       2054.       2066.       2074.    
        2074.       2065.       2041.       2026.       2019.       2014.       2014.       2006.       1994.       1990.    
        1989.       1988.       1989.       1990.       1982.       1979.       1980.       1979.       1980.       1980.    
        1981.       1989.       1997.       1999.       2000.       2001.       1992.       1986.       1973.       1980.    
        1991.       2003.       2014.       2015.       2014.       2007.       1999.       1998.       2002.    
  36    2196.       2229.       2263.       2308.       2368.       2395.       2399.       2384.       2374.       2368.    
        2353.       2357.       2371.       2362.       2350.       2338.       2312.       2280.       2259.       2245.    
        2229.       2209.       2192.       2174.       2160.       2147.       2134.       2124.       2115.       2107.    
        2098.       2091.       2084.       2077.       2074.       2065.       2057.       2062.       2076.       2079.    
        2079.       2068.       2051.       2036.       2023.       2021.       2019.       2010.       1998.       1991.    
        1988.       1984.       1980.       1982.       1976.       1975.       1975.       1974.       1973.       1973.    
        1976.       1982.       1988.       1988.       1985.       1987.       1979.       1975.       1967.       1968.    
        1975.       1990.       2004.       2007.       2006.       2003.       1993.       1973.       1973.    
  37    2230.       2260.       2300.       2346.       2393.       2445.       2427.       2416.       2408.       2398.    
        2376.       2370.       2367.       2354.       2343.       2329.       2309.       2276.       2258.       2240.    
        2219.       2202.       2184.       2170.       2160.       2147.       2134.       2125.       2120.       2112.    
        2101.       2094.       2089.       2085.       2082.       2072.       2061.       2065.       2075.       2080.    
        2077.       2064.       2051.       2040.       2027.       2028.       2024.       2009.       2000.       1995.    
        1991.       1986.       1983.       1980.       1978.       1975.       1973.       1972.       1972.       1970.    
        1971.       1976.       1978.       1977.       1974.       1969.       1964.       1960.       1959.       1960.    
        1964.       1972.       1979.       1982.       1983.       1981.       1973.       1959.       1950.    
  38    2267.       2310.       2356.       2388.       2423.       2463.       2456.       2449.       2433.       2414.    
        2394.       2373.       2361.       2347.       2336.       2324.       2306.       2278.       2265.       2242.    
        2226.       2212.       2193.       2172.       2166.       2155.       2141.       2130.       2125.       2117.    
        2107.       2103.       2099.       2093.       2090.       2080.       2067.       2067.       2073.       2081.    
        2074.       2058.       2049.       2041.       2035.       2037.       2032.       2017.       2006.       1999.    
        1994.       1989.       1986.       1984.       1982.       1978.       1975.       1974.       1972.       1971.    
        1967.       1963.       1963.       1963.       1963.       1960.       1958.       1955.       1953.       1951.    
        1950.       1953.       1957.       1959.       1962.       1958.       1947.       1938.       1932.    
  39    2314.       2357.       2405.       2436.       2458.       2477.       2474.       2460.       2433.       2413.    
        2389.       2372.       2354.       2342.       2333.       2321.       2304.       2287.       2271.       2257.    
        2233.       2216.       2196.       2181.       2177.       2166.       2147.       2137.       2131.       2120.    
        2115.       2111.       2103.       2097.       2096.       2086.       2072.       2071.       2075.       2084.    
        2080.       2061.       2054.       2045.       2046.       2050.       2047.       2035.       2015.       2004.    
        1999.       1993.       1990.       1989.       1987.       1985.       1982.       1979.       1976.       1974.    
        1973.       1977.       1985.       1991.       1983.       1969.       1962.       1953.       1948.       1946.    
        1942.       1942.       1942.       1944.       1943.       1940.       1935.       1932.       1928.    
  40    2368.       2407.       2437.       2469.       2492.       2497.       2484.       2462.       2433.       2410.    
        2388.       2368.       2355.       2344.       2333.       2323.       2311.       2296.       2281.       2261.    
        2238.       2218.       2202.       2198.       2197.       2177.       2162.       2150.       2138.       2127.    
        2124.       2116.       2110.       2105.       2101.       2091.       2074.       2078.       2087.       2090.    
        2089.       2080.       2063.       2052.       2054.       2064.       2059.       2044.       2023.       2014.    
        2005.       2000.       2000.       1997.       1998.       1999.       1996.       1999.       1994.       1980.    
        1978.       1987.       2001.       2006.       2008.       2005.       1989.       1961.       1954.       1949.    
        1945.       1941.       1938.       1936.       1934.       1933.       1931.       1929.       1928.    
  41    2393.       2452.       2479.       2491.       2520.       2518.       2502.       2467.       2443.       2418.    
        2393.       2373.       2357.       2346.       2340.       2332.       2322.       2309.       2283.       2264.    
        2248.       2228.       2215.       2211.       2207.       2194.       2173.       2159.       2142.       2138.    
        2129.       2121.       2114.       2109.       2104.       2093.       2080.       2090.       2099.       2100.    
        2096.       2090.       2075.       2062.       2060.       2076.       2071.       2054.       2039.       2022.    
        2016.       2012.       2014.       2013.       2012.       2019.       2012.       2017.       2002.       1989.    
        1985.       1996.       2007.       2014.       2017.       2017.       2002.       1975.       1962.       1954.    
        1949.       1944.       1941.       1938.       1938.       1936.       1935.       1935.       1935.    
  42    2399.       2448.       2495.       2524.       2541.       2535.       2523.       2491.       2463.       2432.    
        2399.       2378.       2366.       2356.       2357.       2352.       2345.       2325.       2294.       2272.    
        2254.       2240.       2222.       2208.       2200.       2188.       2170.       2159.       2152.       2143.    
        2133.       2123.       2119.       2114.       2107.       2094.       2090.       2106.       2111.       2108.    
        2105.       2096.       2083.       2075.       2070.       2072.       2082.       2076.       2063.       2035.    
        2031.       2029.       2032.       2034.       2034.       2034.       2030.       2020.       2005.       1995.    
        1993.       2004.       2015.       2021.       2023.       2017.       2003.       1982.       1967.       1959.    
        1952.       1946.       1944.       1943.       1942.       1941.       1941.       1941.       1942.    
  43    2429.       2466.       2510.       2541.       2552.       2551.       2539.       2500.       2469.       2438.    
        2408.       2387.       2382.       2379.       2375.       2369.       2363.       2343.       2316.       2282.    
        2264.       2249.       2231.       2222.       2207.       2196.       2187.       2178.       2163.       2147.    
        2137.       2132.       2125.       2118.       2110.       2096.       2099.       2115.       2120.       2116.    
        2115.       2114.       2094.       2083.       2078.       2080.       2091.       2091.       2082.       2060.    
        2057.       2053.       2055.       2056.       2053.       2046.       2036.       2022.       2013.       2000.    
        1999.       2009.       2020.       2028.       2028.       2020.       2006.       1987.       1971.       1962.    
        1955.       1951.       1947.       1951.       1951.       1950.       1948.       1946.       1950.    
  44    2463.       2497.       2540.       2553.       2556.       2554.       2536.       2503.       2467.       2435.    
        2411.       2398.       2390.       2383.       2374.       2368.       2363.       2356.       2333.       2306.    
        2278.       2250.       2254.       2242.       2227.       2213.       2200.       2189.       2172.       2152.    
        2144.       2139.       2130.       2122.       2111.       2099.       2106.       2125.       2133.       2127.    
        2121.       2122.       2121.       2105.       2090.       2091.       2102.       2102.       2095.       2090.    
        2085.       2080.       2079.       2077.       2068.       2060.       2045.       2023.       2017.       2007.    
        2006.       2011.       2021.       2031.       2031.       2021.       2009.       1994.       1976.       1970.    
        1961.       1955.       1952.       1963.       1961.       1959.       1955.       1952.       1959.    
  45    2507.       2535.       2564.       2555.       2547.       2546.       2529.       2499.       2455.       2429.    
        2407.       2393.       2382.       2370.       2354.       2346.       2345.       2340.       2330.       2308.    
        2274.       2280.       2267.       2251.       2238.       2224.       2207.       2192.       2176.       2158.    
        2150.       2142.       2135.       2126.       2113.       2102.       2115.       2136.       2148.       2142.    
        2131.       2122.       2119.       2114.       2103.       2099.       2112.       2112.       2113.       2114.    
        2111.       2107.       2107.       2101.       2084.       2071.       2050.       2031.       2023.       2016.    
        2010.       2013.       2021.       2029.       2029.       2020.       2010.       1997.       1987.       1978.    
        1963.       1960.       1964.       1977.       1979.       1974.       1967.       1959.       1967.    
  46    2515.       2566.       2575.       2556.       2540.       2533.       2520.       2484.       2447.       2421.    
        2397.       2380.       2366.       2352.       2341.       2336.       2329.       2321.       2306.       2306.    
        2309.       2298.       2278.       2267.       2252.       2231.       2209.       2194.       2181.       2167.    
        2154.       2145.       2137.       2125.       2114.       2106.       2119.       2139.       2153.       2148.    
        2139.       2128.       2120.       2113.       2105.       2103.       2114.       2120.       2127.       2132.    
        2134.       2138.       2134.       2120.       2105.       2082.       2058.       2038.       2031.       2026.    
        2017.       2022.       2025.       2032.       2029.       2017.       2008.       1997.       1988.       1976.    
        1969.       1966.       1969.       1980.       1992.       1996.       1986.       1967.       1976.    
  47    2513.       2556.       2574.       2557.       2539.       2526.       2506.       2476.       2440.       2411.    
        2389.       2366.       2356.       2349.       2340.       2335.       2334.       2332.       2329.       2328.    
        2320.       2308.       2293.       2277.       2258.       2233.       2213.       2201.       2189.       2176.    
        2161.       2148.       2139.       2130.       2121.       2109.       2115.       2131.       2143.       2143.    
        2139.       2136.       2126.       2115.       2106.       2105.       2113.       2122.       2133.       2143.    
        2152.       2160.       2155.       2139.       2119.       2095.       2065.       2047.       2035.       2027.    
        2024.       2029.       2032.       2034.       2029.       2016.       2007.       1997.       1988.       1977.    
        1976.       1972.       1973.       1983.       1994.       2001.       1995.       1973.       1982.    
  48    2513.       2561.       2576.       2562.       2545.       2524.       2495.       2465.       2430.       2406.    
        2377.       2362.       2356.       2350.       2347.       2344.       2350.       2354.       2353.       2351.    
        2333.       2315.       2297.       2278.       2257.       2235.       2217.       2208.       2198.       2185.    
        2169.       2156.       2145.       2139.       2139.       2134.       2118.       2121.       2131.       2137.    
        2140.       2144.       2141.       2130.       2117.       2107.       2111.       2127.       2140.       2153.    
        2169.       2177.       2168.       2156.       2139.       2111.       2080.       2058.       2040.       2031.    
        2034.       2037.       2040.       2037.       2026.       2018.       2009.       2001.       1993.       1986.    
        1982.       1979.       1982.       1987.       1999.       2011.       2001.       1983.       1981.    
  49    2513.       2559.       2578.       2564.       2548.       2527.       2485.       2455.       2426.       2403.    
        2381.       2365.       2364.       2361.       2356.       2361.       2365.       2368.       2370.       2353.    
        2331.       2313.       2296.       2275.       2260.       2241.       2230.       2215.       2203.       2189.    
        2175.       2165.       2153.       2150.       2149.       2148.       2134.       2121.       2125.       2133.    
        2143.       2150.       2153.       2148.       2135.       2117.       2109.       2123.       2139.       2161.    
        2181.       2197.       2188.       2171.       2153.       2126.       2096.       2070.       2052.       2040.    
        2042.       2046.       2048.       2045.       2030.       2021.       2014.       2007.       1999.       1993.    
        1990.       1986.       1991.       1998.       2005.       2013.       2013.       1994.       1988.    
  50    2525.       2564.       2585.       2572.       2555.       2519.       2482.       2451.       2416.       2401.    
        2392.       2375.       2379.       2377.       2377.       2382.       2381.       2373.       2358.       2340.    
        2323.       2307.       2292.       2274.       2261.       2248.       2237.       2226.       2211.       2195.    
        2180.       2171.       2162.       2157.       2154.       2150.       2138.       2127.       2125.       2134.    
        2145.       2154.       2161.       2162.       2156.       2132.       2117.       2118.       2133.       2158.    
        2186.       2206.       2206.       2190.       2167.       2144.       2112.       2088.       2068.       2053.    
        2048.       2054.       2062.       2059.       2042.       2028.       2019.       2012.       2005.       2001.    
        1997.       1993.       2000.       2006.       2012.       2019.       2024.       2014.       2001.    
  51    2533.       2568.       2579.       2572.       2548.       2507.       2477.       2445.       2408.       2397.    
        2387.       2392.       2403.       2401.       2406.       2406.       2390.       2363.       2344.       2330.    
        2318.       2307.       2294.       2281.       2272.       2256.       2240.       2228.       2217.       2201.    
        2187.       2176.       2167.       2161.       2155.       2149.       2137.       2129.       2128.       2134.    
        2145.       2156.       2164.       2169.       2168.       2150.       2125.       2117.       2122.       2149.    
        2179.       2205.       2222.       2207.       2181.       2156.       2128.       2102.       2081.       2071.    
        2057.       2061.       2070.       2073.       2060.       2039.       2024.       2018.       2012.       2014.    
        2009.       1998.       2005.       2014.       2020.       2026.       2032.       2021.       2011.    
  52    2555.       2573.       2578.       2565.       2536.       2495.       2465.       2438.       2411.       2397.    
        2403.       2411.       2420.       2426.       2428.       2422.       2408.       2382.       2364.       2343.    
        2325.       2313.       2303.       2290.       2279.       2264.       2245.       2230.       2217.       2206.    
        2194.       2180.       2170.       2162.       2154.       2146.       2137.       2129.       2130.       2134.    
        2144.       2155.       2166.       2172.       2177.       2169.       2146.       2125.       2121.       2136.    
        2169.       2201.       2221.       2218.       2198.       2171.       2138.       2114.       2094.       2081.    
        2071.       2072.       2077.       2079.       2074.       2053.       2034.       2026.       2027.       2027.    
        2023.       2008.       2010.       2024.       2031.       2037.       2048.       2042.       2025.    
  53    2582.       2586.       2584.       2564.       2526.       2491.       2462.       2429.       2415.       2409.    
        2419.       2426.       2438.       2444.       2445.       2442.       2432.       2412.       2384.       2363.    
        2344.       2325.       2313.       2302.       2293.       2277.       2255.       2236.       2218.       2205.    
        2194.       2183.       2172.       2163.       2154.       2145.       2139.       2132.       2132.       2138.    
        2148.       2162.       2172.       2183.       2189.       2188.       2167.       2141.       2134.       2136.    
        2164.       2193.       2219.       2225.       2206.       2177.       2150.       2124.       2103.       2090.    
        2085.       2083.       2083.       2083.       2076.       2059.       2043.       2036.       2037.       2039.    
        2036.       2025.       2017.       2033.       2050.       2053.       2062.       2060.       2038.    
  54    2604.       2599.       2587.       2556.       2513.       2486.       2469.       2452.       2429.       2429.    
        2433.       2440.       2452.       2457.       2459.       2465.       2460.       2433.       2409.       2388.    
        2361.       2341.       2327.       2315.       2306.       2289.       2265.       2245.       2225.       2206.    
        2192.       2183.       2171.       2162.       2153.       2145.       2141.       2135.       2137.       2147.    
        2161.       2173.       2190.       2202.       2213.       2213.       2188.       2161.       2152.       2144.    
        2159.       2190.       2216.       2228.       2215.       2184.       2159.       2137.       2114.       2100.    
        2095.       2096.       2093.       2090.       2086.       2068.       2053.       2046.       2050.       2053.    
        2054.       2042.       2029.       2037.       2053.       2061.       2066.       2066.       2058.    
  55    2618.       2614.       2586.       2557.       2533.       2508.       2483.       2465.       2441.       2447.    
        2445.       2456.       2464.       2469.       2473.       2479.       2481.       2453.       2428.       2407.    
        2380.       2357.       2339.       2325.       2313.       2297.       2275.       2254.       2232.       2209.    
        2194.       2182.       2171.       2161.       2153.       2146.       2143.       2138.       2144.       2157.    
        2172.       2189.       2207.       2223.       2235.       2236.       2205.       2180.       2166.       2159.    
        2165.       2187.       2212.       2232.       2225.       2194.       2169.       2153.       2134.       2112.    
        2108.       2106.       2104.       2098.       2091.       2078.       2067.       2058.       2062.       2067.    
        2068.       2066.       2041.       2048.       2058.       2065.       2072.       2072.       2071.    
  56    2628.       2609.       2575.       2545.       2535.       2525.       2504.       2475.       2466.       2456.    
        2453.       2469.       2478.       2479.       2484.       2492.       2493.       2471.       2450.       2428.    
        2405.       2378.       2354.       2337.       2320.       2306.       2285.       2263.       2238.       2212.    
        2199.       2186.       2172.       2161.       2155.       2150.       2146.       2143.       2150.       2164.    
        2182.       2201.       2222.       2239.       2254.       2254.       2219.       2198.       2182.       2175.    
        2170.       2183.       2211.       2234.       2232.       2202.       2182.       2164.       2146.       2128.    
        2118.       2119.       2118.       2108.       2096.       2086.       2076.       2070.       2072.       2080.    
        2085.       2080.       2052.       2057.       2069.       2075.       2076.       2078.       2078.    
  57    2638.       2599.       2549.       2534.       2537.       2532.       2507.       2508.       2481.       2467.    
        2482.       2493.       2494.       2492.       2498.       2505.       2506.       2491.       2474.       2450.    
        2423.       2401.       2369.       2350.       2330.       2313.       2295.       2273.       2243.       2221.    
        2203.       2187.       2174.       2163.       2156.       2151.       2147.       2148.       2155.       2167.    
        2182.       2202.       2226.       2241.       2256.       2263.       2242.       2214.       2198.       2189.    
        2181.       2189.       2211.       2238.       2245.       2215.       2195.       2177.       2161.       2146.    
        2132.       2137.       2135.       2122.       2106.       2096.       2088.       2080.       2081.       2088.    
        2095.       2090.       2063.       2070.       2075.       2079.       2081.       2083.       2085.    
  58    2641.       2597.       2553.       2535.       2525.       2517.       2530.       2526.       2492.       2494.    
        2504.       2513.       2514.       2505.       2510.       2516.       2520.       2507.       2485.       2461.    
        2435.       2413.       2389.       2363.       2343.       2323.       2305.       2280.       2252.       2227.    
        2210.       2192.       2178.       2167.       2158.       2153.       2150.       2150.       2156.       2165.    
        2178.       2197.       2216.       2233.       2254.       2266.       2271.       2237.       2218.       2206.    
        2198.       2198.       2215.       2242.       2254.       2230.       2210.       2193.       2177.       2160.    
        2149.       2153.       2150.       2138.       2122.       2109.       2099.       2093.       2093.       2098.    
        2095.       2087.       2074.       2081.       2083.       2084.       2086.       2092.       2096.    
  59    2648.       2611.       2564.       2542.       2531.       2523.       2548.       2546.       2534.       2520.    
        2526.       2533.       2530.       2524.       2524.       2526.       2534.       2519.       2496.       2472.    
        2442.       2422.       2400.       2373.       2352.       2333.       2311.       2285.       2257.       2235.    
        2214.       2198.       2181.       2170.       2160.       2155.       2151.       2152.       2158.       2165.    
        2178.       2195.       2215.       2233.       2252.       2270.       2277.       2263.       2236.       2224.    
        2215.       2212.       2219.       2246.       2260.       2245.       2225.       2211.       2196.       2179.    
        2166.       2170.       2164.       2152.       2136.       2119.       2113.       2105.       2107.       2106.    
        2096.       2087.       2085.       2089.       2088.       2090.       2096.       2103.       2107.    
  60    2637.       2632.       2600.       2575.       2565.       2550.       2575.       2578.       2573.       2560.    
        2560.       2553.       2541.       2534.       2531.       2536.       2543.       2529.       2506.       2479.    
        2453.       2428.       2404.       2388.       2372.       2346.       2319.       2290.       2267.       2242.    
        2217.       2203.       2187.       2173.       2164.       2157.       2153.       2154.       2158.       2166.    
        2177.       2196.       2215.       2232.       2255.       2278.       2288.       2280.       2259.       2238.    
        2229.       2226.       2225.       2245.       2262.       2256.       2241.       2228.       2211.       2198.    
        2188.       2194.       2188.       2170.       2152.       2135.       2128.       2122.       2120.       2111.    
        2098.       2091.       2093.       2096.       2095.       2099.       2107.       2112.       2115.    
  61    2614.       2626.       2629.       2621.       2602.       2599.       2598.       2594.       2603.       2605.    
        2588.       2575.       2550.       2530.       2514.       2527.       2533.       2536.       2509.       2484.    
        2458.       2430.       2408.       2390.       2382.       2350.       2323.       2297.       2273.       2245.    
        2225.       2211.       2190.       2177.       2168.       2159.       2156.       2155.       2159.       2166.    
        2178.       2194.       2214.       2234.       2256.       2282.       2303.       2299.       2276.       2256.    
        2241.       2235.       2236.       2244.       2262.       2266.       2258.       2245.       2228.       2215.    
        2205.       2211.       2211.       2189.       2170.       2154.       2142.       2133.       2127.       2112.    
        2103.       2097.       2101.       2103.       2103.       2110.       2116.       2119.       2122.    
  62    2586.       2600.       2623.       2626.       2614.       2601.       2597.       2594.       2604.       2619.    
        2600.       2562.       2524.       2493.       2474.       2479.       2505.       2517.       2509.       2487.    
        2461.       2433.       2407.       2392.       2377.       2349.       2328.       2303.       2276.       2251.    
        2230.       2213.       2195.       2181.       2171.       2163.       2159.       2157.       2159.       2167.    
        2178.       2193.       2214.       2232.       2253.       2280.       2306.       2313.       2301.       2273.    
        2257.       2247.       2246.       2248.       2260.       2274.       2274.       2263.       2249.       2235.    
        2219.       2229.       2226.       2210.       2189.       2172.       2158.       2142.       2127.       2116.    
        2107.       2106.       2109.       2108.       2112.       2117.       2123.       2127.       2130.    
  63    2552.       2587.       2612.       2622.       2608.       2582.       2581.       2575.       2586.       2606.    
        2585.       2541.       2500.       2459.       2437.       2437.       2460.       2467.       2485.       2489.    
        2464.       2429.       2407.       2391.       2377.       2352.       2331.       2307.       2283.       2253.    
        2233.       2218.       2203.       2184.       2173.       2166.       2162.       2159.       2162.       2168.    
        2177.       2192.       2211.       2229.       2252.       2272.       2298.       2321.       2318.       2298.    
        2271.       2261.       2256.       2255.       2265.       2278.       2289.       2283.       2272.       2264.    
        2252.       2250.       2247.       2229.       2211.       2187.       2167.       2151.       2135.       2120.    
        2112.       2113.       2114.       2115.       2118.       2124.       2129.       2134.       2138.    
  64    2516.       2548.       2583.       2602.       2609.       2572.       2542.       2532.       2548.       2588.    
        2571.       2527.       2480.       2433.       2397.       2397.       2408.       2417.       2458.       2475.    
        2461.       2427.       2401.       2385.       2379.       2359.       2337.       2314.       2291.       2259.    
        2240.       2221.       2208.       2193.       2176.       2168.       2164.       2162.       2163.       2167.    
        2177.       2189.       2208.       2226.       2247.       2270.       2294.       2316.       2328.       2320.    
        2297.       2281.       2276.       2268.       2270.       2281.       2294.       2302.       2298.       2287.    
        2278.       2274.       2265.       2251.       2230.       2201.       2173.       2155.       2139.       2125.    
        2119.       2119.       2120.       2120.       2123.       2128.       2135.       2142.       2147.    
  65    2459.       2505.       2549.       2580.       2564.       2551.       2512.       2483.       2506.       2534.    
        2563.       2511.       2463.       2407.       2368.       2348.       2353.       2372.       2407.       2435.    
        2455.       2421.       2378.       2359.       2368.       2360.       2339.       2315.       2296.       2267.    
        2239.       2217.       2210.       2197.       2184.       2171.       2166.       2164.       2164.       2168.    
        2175.       2188.       2203.       2220.       2242.       2263.       2286.       2315.       2331.       2331.    
        2320.       2310.       2305.       2289.       2277.       2282.       2295.       2310.       2316.       2308.    
        2301.       2292.       2278.       2262.       2240.       2211.       2181.       2157.       2144.       2131.    
        2128.       2126.       2127.       2127.       2127.       2133.       2139.       2146.       2151.    
  66    2415.       2457.       2502.       2510.       2493.       2493.       2464.       2426.       2453.       2482.    
        2519.       2515.       2448.       2396.       2352.       2312.       2302.       2333.       2360.       2393.    
        2423.       2401.       2361.       2327.       2320.       2326.       2330.       2318.       2293.       2269.    
        2242.       2207.       2190.       2193.       2187.       2176.       2170.       2168.       2164.       2167.    
        2174.       2185.       2198.       2215.       2233.       2254.       2277.       2299.       2316.       2333.    
        2328.       2325.       2324.       2307.       2292.       2288.       2298.       2315.       2329.       2326.    
        2318.       2304.       2289.       2268.       2246.       2215.       2184.       2163.       2151.       2143.    
        2141.       2136.       2135.       2132.       2130.       2134.       2141.       2147.       2155.    
  67    2375.       2416.       2443.       2450.       2439.       2424.       2402.       2377.       2404.       2431.    
        2471.       2484.       2439.       2385.       2331.       2288.       2258.       2285.       2316.       2348.    
        2368.       2360.       2334.       2286.       2263.       2269.       2283.       2296.       2284.       2270.    
        2227.       2190.       2166.       2168.       2176.       2178.       2173.       2171.       2164.       2164.    
        2170.       2178.       2191.       2205.       2222.       2241.       2261.       2278.       2297.       2310.    
        2320.       2322.       2332.       2322.       2304.       2296.       2301.       2315.       2334.       2339.    
        2330.       2317.       2292.       2272.       2250.       2220.       2193.       2168.       2159.       2154.    
        2146.       2141.       2136.       2132.       2131.       2135.       2141.       2148.       2158.    
  68    2343.       2386.       2380.       2393.       2396.       2369.       2349.       2328.       2356.       2382.    
        2414.       2423.       2391.       2353.       2303.       2255.       2219.       2243.       2272.       2301.    
        2308.       2290.       2303.       2269.       2205.       2214.       2218.       2235.       2238.       2212.    
        2203.       2163.       2136.       2138.       2145.       2154.       2161.       2161.       2160.       2159.    
        2160.       2169.       2179.       2191.       2211.       2224.       2242.       2261.       2275.       2286.    
        2300.       2316.       2330.       2330.       2314.       2304.       2301.       2311.       2327.       2347.    
        2336.       2322.       2300.       2278.       2256.       2226.       2200.       2179.       2169.       2158.    
        2148.       2140.       2133.       2131.       2130.       2135.       2140.       2147.       2152.    
  69    2318.       2343.       2319.       2338.       2333.       2319.       2305.       2280.       2311.       2339.    
        2352.       2371.       2346.       2313.       2270.       2224.       2190.       2201.       2224.       2249.    
        2240.       2221.       2227.       2254.       2168.       2154.       2155.       2161.       2167.       2148.    
        2156.       2141.       2097.       2089.       2103.       2098.       2126.       2138.       2136.       2136.    
        2139.       2157.       2165.       2175.       2188.       2199.       2218.       2236.       2254.       2269.    
        2287.       2308.       2324.       2336.       2320.       2306.       2300.       2308.       2319.       2337.    
        2349.       2331.       2310.       2288.       2265.       2237.       2212.       2193.       2176.       2159.    
        2147.       2136.       2129.       2125.       2128.       2134.       2137.       2141.       2142.    
  70    2269.       2289.       2276.       2286.       2280.       2270.       2256.       2241.       2266.       2278.    
        2292.       2310.       2302.       2259.       2229.       2197.       2155.       2157.       2179.       2185.    
        2169.       2174.       2172.       2148.       2120.       2092.       2096.       2103.       2101.       2087.    
        2102.       2094.       2064.       2046.       2057.       2058.       2082.       2093.       2100.       2099.    
        2121.       2136.       2143.       2152.       2165.       2172.       2185.       2208.       2228.       2249.    
        2267.       2291.       2314.       2337.       2321.       2302.       2293.       2303.       2313.       2327.    
        2341.       2345.       2324.       2300.       2278.       2247.       2227.       2207.       2185.       2164.    
        2146.       2134.       2121.       2120.       2126.       2130.       2127.       2128.       2127.    
  71    2227.       2236.       2238.       2242.       2235.       2228.       2218.       2207.       2219.       2223.    
        2235.       2242.       2243.       2218.       2188.       2164.       2123.       2117.       2133.       2134.    
        2122.       2126.       2108.       2093.       2074.       2043.       2044.       2054.       2055.       2036.    
        2057.       2044.       2022.       2014.       2017.       2021.       2035.       2044.       2054.       2054.    
        2085.       2105.       2102.       2114.       2130.       2144.       2157.       2179.       2202.       2224.    
        2242.       2270.       2300.       2320.       2315.       2296.       2289.       2297.       2302.       2314.    
        2327.       2336.       2339.       2313.       2291.       2255.       2242.       2221.       2199.       2171.    
        2149.       2129.       2115.       2116.       2124.       2124.       2119.       2117.       2112.    



                       INITIAL HEAD FOR LAYER   3
 READING ON UNIT    8 WITH FORMAT: (FREE)              

            1           2           3           4           5           6           7           8           9          10
           11          12          13          14          15          16          17          18          19          20
           21          22          23          24          25          26          27          28          29          30
           31          32          33          34          35          36          37          38          39          40
           41          42          43          44          45          46          47          48          49          50
           51          52          53          54          55          56          57          58          59          60
           61          62          63          64          65          66          67          68          69          70
           71          72          73          74          75          76          77          78          79
 ........................................................................................................................
   1    2322.       2303.       2280.       2256.       2234.       2234.       2244.       2253.       2239.       2220.    
        2204.       2191.       2173.       2161.       2156.       2155.       2155.       2156.       2157.       2157.    
        2166.       2177.       2182.       2176.       2164.       2152.       2145.       2147.       2149.       2148.    
        2146.       2135.       2106.       2095.       2105.       2123.       2148.       2161.       2151.       2139.    
        2133.       2130.       2127.       2124.       2122.       2120.       2120.       2130.       2144.       2154.    
        2164.       2173.       2163.       2141.       2133.       2130.       2125.       2116.       2109.       2107.    
        2104.       2106.       2109.       2117.       2126.       2132.       2125.       2111.       2095.       2085.    
        2074.       2066.       2059.       2054.       2051.       2052.       2061.       2057.       2043.    
   2    2339.       2319.       2292.       2270.       2248.       2243.       2256.       2264.       2249.       2234.    
        2220.       2204.       2192.       2175.       2161.       2157.       2157.       2160.       2167.       2174.    
        2187.       2190.       2189.       2171.       2154.       2146.       2144.       2146.       2149.       2152.    
        2149.       2133.       2107.       2101.       2110.       2127.       2142.       2163.       2160.       2149.    
        2136.       2131.       2128.       2124.       2121.       2120.       2121.       2130.       2146.       2158.    
        2167.       2171.       2157.       2132.       2123.       2123.       2121.       2114.       2111.       2110.    
        2109.       2108.       2110.       2119.       2127.       2135.       2131.       2118.       2102.       2090.    
        2081.       2071.       2062.       2055.       2051.       2052.       2056.       2061.       2060.    
   3    2343.       2324.       2304.       2285.       2261.       2254.       2265.       2279.       2262.       2246.    
        2232.       2219.       2204.       2193.       2175.       2164.       2165.       2173.       2183.       2196.    
        2196.       2197.       2181.       2162.       2145.       2143.       2143.       2145.       2148.       2150.    
        2144.       2121.       2109.       2102.       2112.       2128.       2145.       2163.       2168.       2155.    
        2141.       2133.       2129.       2126.       2123.       2120.       2121.       2132.       2148.       2157.    
        2163.       2164.       2149.       2122.       2121.       2120.       2118.       2114.       2112.       2114.    
        2113.       2111.       2112.       2120.       2128.       2131.       2125.       2114.       2102.       2093.    
        2083.       2072.       2063.       2052.       2047.       2047.       2053.       2062.       2059.    
   4    2344.       2329.       2310.       2293.       2282.       2269.       2272.       2285.       2275.       2258.    
        2242.       2227.       2215.       2200.       2190.       2174.       2174.       2181.       2188.       2192.    
        2196.       2185.       2167.       2150.       2144.       2141.       2142.       2143.       2143.       2141.    
        2128.       2118.       2110.       2108.       2117.       2126.       2142.       2158.       2171.       2159.    
        2147.       2134.       2131.       2129.       2124.       2122.       2125.       2135.       2145.       2152.    
        2158.       2157.       2138.       2121.       2120.       2118.       2116.       2114.       2114.       2119.    
        2119.       2116.       2116.       2121.       2127.       2128.       2121.       2112.       2101.       2093.    
        2088.       2078.       2065.       2050.       2045.       2042.       2045.       2047.       2035.    
   5    2346.       2332.       2318.       2307.       2303.       2288.       2278.       2285.       2282.       2267.    
        2248.       2234.       2220.       2213.       2202.       2183.       2181.       2181.       2184.       2184.    
        2180.       2167.       2147.       2140.       2135.       2140.       2139.       2138.       2137.       2133.    
        2124.       2117.       2110.       2115.       2123.       2127.       2136.       2153.       2172.       2162.    
        2152.       2141.       2135.       2133.       2129.       2126.       2128.       2134.       2142.       2149.    
        2154.       2151.       2131.       2120.       2118.       2118.       2116.       2116.       2119.       2123.    
        2124.       2122.       2119.       2122.       2126.       2126.       2120.       2110.       2099.       2096.    
        2091.       2080.       2068.       2056.       2048.       2040.       2035.       2029.       2017.    
   6    2340.       2333.       2326.       2321.       2317.       2302.       2289.       2288.       2284.       2273.    
        2255.       2236.       2230.       2226.       2212.       2198.       2189.       2187.       2178.       2169.    
        2164.       2148.       2137.       2132.       2137.       2137.       2137.       2135.       2133.       2123.    
        2118.       2113.       2113.       2119.       2125.       2131.       2141.       2153.       2170.       2167.    
        2161.       2151.       2141.       2135.       2133.       2129.       2132.       2136.       2142.       2148.    
        2152.       2149.       2132.       2121.       2119.       2116.       2114.       2116.       2120.       2123.    
        2125.       2123.       2120.       2122.       2124.       2125.       2122.       2113.       2108.       2102.    
        2090.       2075.       2068.       2064.       2064.       2053.       2035.       2028.       2017.    
   7    2340.       2334.       2328.       2329.       2318.       2305.       2293.       2289.       2285.       2277.    
        2262.       2243.       2238.       2239.       2235.       2214.       2200.       2195.       2171.       2161.    
        2151.       2139.       2132.       2126.       2132.       2134.       2134.       2131.       2126.       2119.    
        2115.       2113.       2118.       2123.       2127.       2135.       2143.       2155.       2171.       2169.    
        2164.       2156.       2145.       2141.       2139.       2133.       2134.       2138.       2145.       2149.    
        2155.       2151.       2136.       2132.       2120.       2113.       2111.       2114.       2119.       2122.    
        2126.       2124.       2121.       2119.       2122.       2123.       2122.       2118.       2113.       2108.    
        2099.       2077.       2071.       2072.       2071.       2062.       2053.       2040.       2030.    
   8    2340.       2336.       2333.       2336.       2325.       2310.       2297.       2291.       2285.       2278.    
        2261.       2248.       2245.       2246.       2240.       2226.       2208.       2193.       2172.       2157.    
        2144.       2135.       2129.       2124.       2122.       2122.       2126.       2126.       2122.       2118.    
        2114.       2117.       2123.       2126.       2131.       2136.       2147.       2160.       2171.       2170.    
        2166.       2162.       2151.       2148.       2149.       2138.       2137.       2143.       2150.       2155.    
        2160.       2158.       2146.       2136.       2120.       2109.       2109.       2111.       2117.       2123.    
        2126.       2125.       2122.       2117.       2116.       2117.       2117.       2118.       2117.       2120.    
        2113.       2094.       2085.       2084.       2081.       2077.       2074.       2060.       2036.    
   9    2341.       2338.       2335.       2343.       2330.       2314.       2301.       2293.       2285.       2280.    
        2267.       2256.       2254.       2248.       2240.       2229.       2210.       2194.       2174.       2159.    
        2148.       2135.       2125.       2122.       2121.       2120.       2120.       2120.       2119.       2116.    
        2115.       2119.       2125.       2131.       2135.       2138.       2151.       2169.       2177.       2175.    
        2170.       2166.       2158.       2156.       2153.       2144.       2143.       2146.       2151.       2156.    
        2160.       2152.       2141.       2132.       2121.       2110.       2106.       2108.       2110.       2119.    
        2125.       2125.       2122.       2116.       2110.       2108.       2111.       2116.       2120.       2125.    
        2125.       2118.       2115.       2113.       2103.       2074.       2065.       2049.       2031.    
  10    2342.       2339.       2334.       2336.       2330.       2315.       2302.       2293.       2289.       2282.    
        2267.       2265.       2259.       2251.       2243.       2230.       2212.       2195.       2177.       2163.    
        2148.       2132.       2122.       2121.       2120.       2119.       2119.       2118.       2117.       2115.    
        2116.       2120.       2125.       2132.       2138.       2143.       2152.       2175.       2185.       2182.    
        2179.       2172.       2167.       2165.       2157.       2147.       2148.       2150.       2151.       2151.    
        2154.       2147.       2140.       2130.       2117.       2111.       2106.       2107.       2108.       2115.    
        2120.       2121.       2119.       2116.       2111.       2099.       2106.       2115.       2122.       2127.    
        2130.       2129.       2128.       2120.       2100.       2070.       2056.       2044.       2030.    
  11    2341.       2337.       2333.       2329.       2322.       2316.       2310.       2301.       2293.       2290.    
        2279.       2273.       2265.       2257.       2250.       2231.       2215.       2197.       2177.       2161.    
        2141.       2130.       2122.       2122.       2122.       2121.       2120.       2118.       2116.       2116.    
        2117.       2120.       2126.       2134.       2141.       2146.       2158.       2171.       2183.       2185.    
        2186.       2181.       2182.       2172.       2160.       2156.       2156.       2152.       2150.       2148.    
        2146.       2143.       2139.       2130.       2118.       2111.       2106.       2105.       2105.       2108.    
        2112.       2112.       2113.       2112.       2107.       2097.       2104.       2112.       2119.       2125.    
        2130.       2131.       2128.       2122.       2100.       2072.       2057.       2044.       2035.    
  12    2341.       2339.       2337.       2333.       2329.       2329.       2322.       2314.       2305.       2302.    
        2292.       2280.       2275.       2271.       2254.       2232.       2219.       2195.       2167.       2148.    
        2135.       2123.       2121.       2122.       2122.       2123.       2122.       2120.       2117.       2117.    
        2117.       2120.       2128.       2137.       2147.       2154.       2166.       2183.       2188.       2184.    
        2186.       2187.       2181.       2172.       2167.       2163.       2160.       2156.       2152.       2146.    
        2143.       2137.       2136.       2135.       2121.       2112.       2108.       2103.       2101.       2102.    
        2104.       2106.       2107.       2106.       2101.       2094.       2097.       2105.       2112.       2123.    
        2128.       2128.       2125.       2123.       2113.       2090.       2063.       2053.       2047.    
  13    2343.       2341.       2341.       2340.       2337.       2335.       2330.       2326.       2322.       2320.    
        2309.       2296.       2277.       2254.       2238.       2229.       2208.       2179.       2150.       2137.    
        2126.       2120.       2117.       2117.       2118.       2122.       2119.       2118.       2118.       2117.    
        2118.       2121.       2131.       2145.       2158.       2173.       2181.       2189.       2188.       2185.    
        2184.       2182.       2171.       2167.       2165.       2164.       2161.       2157.       2150.       2144.    
        2139.       2134.       2131.       2128.       2122.       2114.       2108.       2102.       2098.       2096.    
        2097.       2098.       2103.       2101.       2096.       2088.       2089.       2096.       2108.       2121.    
        2123.       2124.       2121.       2117.       2110.       2098.       2079.       2061.       2048.    
  14    2355.       2346.       2346.       2345.       2344.       2343.       2342.       2335.       2322.       2308.    
        2283.       2259.       2237.       2223.       2217.       2206.       2185.       2164.       2135.       2122.    
        2118.       2117.       2117.       2117.       2117.       2117.       2117.       2117.       2117.       2118.    
        2118.       2122.       2142.       2156.       2172.       2184.       2194.       2193.       2188.       2178.    
        2172.       2168.       2158.       2157.       2157.       2161.       2160.       2155.       2148.       2142.    
        2137.       2132.       2128.       2124.       2120.       2116.       2110.       2104.       2098.       2092.    
        2092.       2094.       2097.       2097.       2089.       2081.       2080.       2087.       2098.       2113.    
        2116.       2118.       2118.       2114.       2108.       2102.       2085.       2064.       2052.    
  15    2370.       2352.       2345.       2345.       2335.       2329.       2321.       2315.       2294.       2264.    
        2241.       2213.       2192.       2190.       2185.       2171.       2152.       2133.       2118.       2117.    
        2117.       2117.       2117.       2117.       2117.       2117.       2117.       2117.       2117.       2117.    
        2118.       2127.       2149.       2166.       2187.       2196.       2196.       2197.       2186.       2178.    
        2170.       2153.       2145.       2142.       2143.       2150.       2152.       2151.       2146.       2140.    
        2134.       2129.       2124.       2120.       2116.       2113.       2111.       2106.       2100.       2091.    
        2087.       2090.       2092.       2090.       2087.       2078.       2073.       2078.       2085.       2097.    
        2105.       2110.       2114.       2114.       2113.       2109.       2095.       2073.       2053.    
  16    2350.       2330.       2311.       2306.       2293.       2282.       2261.       2269.       2241.       2213.    
        2195.       2169.       2154.       2153.       2142.       2128.       2118.       2117.       2117.       2117.    
        2117.       2117.       2117.       2117.       2117.       2117.       2117.       2117.       2117.       2117.    
        2122.       2143.       2162.       2186.       2203.       2205.       2207.       2195.       2186.       2175.    
        2164.       2155.       2150.       2146.       2131.       2136.       2137.       2140.       2139.       2136.    
        2132.       2125.       2120.       2115.       2111.       2109.       2107.       2105.       2101.       2097.    
        2083.       2086.       2089.       2088.       2086.       2078.       2070.       2070.       2072.       2084.    
        2092.       2102.       2109.       2110.       2110.       2105.       2098.       2076.       2056.    
  17    2301.       2283.       2267.       2257.       2242.       2227.       2213.       2203.       2183.       2168.    
        2145.       2130.       2121.       2117.       2117.       2117.       2117.       2117.       2117.       2117.    
        2117.       2117.       2117.       2117.       2117.       2117.       2117.       2117.       2117.       2119.    
        2144.       2166.       2191.       2205.       2211.       2208.       2202.       2186.       2179.       2170.    
        2158.       2155.       2152.       2148.       2135.       2124.       2122.       2122.       2129.       2129.    
        2125.       2119.       2113.       2110.       2108.       2106.       2105.       2103.       2100.       2097.    
        2083.       2082.       2087.       2085.       2078.       2067.       2065.       2062.       2063.       2069.    
        2077.       2093.       2101.       2103.       2102.       2098.       2091.       2077.       2055.    
  18    2256.       2235.       2222.       2207.       2192.       2183.       2164.       2150.       2133.       2122.    
        2117.       2117.       2117.       2117.       2117.       2117.       2117.       2117.       2117.       2117.    
        2117.       2117.       2117.       2117.       2117.       2117.       2117.       2117.       2127.       2150.    
        2176.       2199.       2213.       2221.       2214.       2207.       2194.       2182.       2174.       2167.    
        2158.       2155.       2150.       2146.       2133.       2126.       2117.       2105.       2115.       2120.    
        2117.       2111.       2108.       2104.       2102.       2102.       2102.       2101.       2099.       2093.    
        2086.       2073.       2078.       2075.       2067.       2060.       2060.       2057.       2057.       2056.    
        2066.       2081.       2091.       2096.       2097.       2091.       2083.       2074.       2052.    
  19    2212.       2190.       2180.       2166.       2152.       2138.       2122.       2117.       2117.       2117.    
        2117.       2117.       2117.       2117.       2117.       2117.       2117.       2117.       2117.       2117.    
        2117.       2117.       2117.       2117.       2117.       2117.       2118.       2129.       2154.       2185.    
        2209.       2214.       2230.       2220.       2208.       2210.       2195.       2184.       2181.       2172.    
        2163.       2157.       2151.       2147.       2139.       2133.       2117.       2092.       2099.       2108.    
        2109.       2103.       2102.       2099.       2097.       2098.       2100.       2100.       2098.       2089.    
        2081.       2071.       2063.       2063.       2060.       2055.       2057.       2056.       2056.       2056.    
        2058.       2070.       2084.       2096.       2100.       2091.       2082.       2071.       2052.    
  20    2178.       2163.       2147.       2134.       2124.       2117.       2117.       2117.       2117.       2117.    
        2117.       2117.       2117.       2117.       2117.       2117.       2117.       2117.       2117.       2117.    
        2117.       2117.       2117.       2117.       2117.       2120.       2134.       2155.       2184.       2196.    
        2208.       2230.       2224.       2219.       2227.       2228.       2210.       2199.       2187.       2179.    
        2172.       2159.       2149.       2146.       2138.       2132.       2113.       2087.       2089.       2095.    
        2099.       2095.       2095.       2093.       2093.       2094.       2098.       2097.       2092.       2084.    
        2077.       2069.       2060.       2054.       2055.       2053.       2056.       2059.       2060.       2062.    
        2060.       2067.       2083.       2110.       2114.       2097.       2082.       2070.       2051.    
  21    2154.       2141.       2125.       2118.       2117.       2117.       2117.       2117.       2117.       2117.    
        2117.       2117.       2117.       2117.       2117.       2117.       2117.       2117.       2117.       2117.    
        2117.       2117.       2117.       2117.       2119.       2140.       2159.       2177.       2194.       2198.    
        2231.       2229.       2230.       2239.       2243.       2230.       2210.       2194.       2179.       2168.    
        2158.       2148.       2139.       2131.       2124.       2116.       2100.       2077.       2074.       2081.    
        2087.       2085.       2085.       2085.       2088.       2091.       2095.       2092.       2085.       2080.    
        2075.       2067.       2060.       2051.       2051.       2052.       2061.       2065.       2073.       2073.    
        2070.       2070.       2082.       2097.       2107.       2105.       2086.       2073.       2056.    
  22    2136.       2120.       2117.       2117.       2117.       2117.       2117.       2117.       2117.       2117.    
        2117.       2117.       2117.       2117.       2117.       2117.       2117.       2117.       2117.       2117.    
        2117.       2117.       2117.       2125.       2146.       2167.       2187.       2206.       2221.       2235.    
        2235.       2237.       2248.       2245.       2232.       2215.       2199.       2183.       2171.       2162.    
        2151.       2138.       2126.       2114.       2100.       2092.       2075.       2065.       2060.       2068.    
        2077.       2077.       2076.       2080.       2085.       2088.       2091.       2087.       2081.       2075.    
        2071.       2066.       2061.       2051.       2048.       2051.       2058.       2065.       2070.       2075.    
        2080.       2077.       2077.       2087.       2100.       2108.       2099.       2076.       2063.    
  23    2118.       2117.       2117.       2117.       2117.       2117.       2117.       2117.       2117.       2117.    
        2117.       2117.       2117.       2117.       2117.       2117.       2117.       2117.       2117.       2117.    
        2117.       2117.       2132.       2150.       2175.       2197.       2217.       2241.       2239.       2244.    
        2254.       2257.       2243.       2230.       2216.       2201.       2185.       2173.       2160.       2150.    
        2144.       2136.       2123.       2111.       2092.       2073.       2062.       2055.       2049.       2060.    
        2067.       2067.       2069.       2074.       2082.       2085.       2089.       2088.       2079.       2071.    
        2069.       2065.       2061.       2050.       2045.       2047.       2053.       2062.       2070.       2077.    
        2086.       2078.       2075.       2081.       2094.       2104.       2098.       2079.       2068.    
  24    2117.       2117.       2117.       2117.       2117.       2117.       2117.       2117.       2117.       2117.    
        2117.       2117.       2117.       2117.       2117.       2117.       2117.       2117.       2117.       2117.    
        2124.       2143.       2165.       2185.       2205.       2232.       2260.       2257.       2253.       2258.    
        2251.       2240.       2226.       2212.       2199.       2182.       2169.       2156.       2145.       2136.    
        2129.       2119.       2111.       2105.       2093.       2075.       2059.       2047.       2040.       2050.    
        2054.       2054.       2059.       2073.       2077.       2081.       2085.       2086.       2077.       2071.    
        2066.       2065.       2062.       2048.       2045.       2045.       2047.       2056.       2067.       2077.    
        2087.       2080.       2065.       2069.       2078.       2093.       2081.       2070.       2062.    
  25    2117.       2117.       2117.       2117.       2117.       2117.       2117.       2117.       2117.       2117.    
        2117.       2117.       2117.       2117.       2117.       2117.       2119.       2117.       2122.       2133.    
        2155.       2176.       2196.       2217.       2235.       2259.       2274.       2265.       2240.       2229.    
        2229.       2218.       2207.       2196.       2181.       2168.       2155.       2139.       2126.       2119.    
        2113.       2106.       2097.       2092.       2087.       2077.       2058.       2045.       2035.       2038.    
        2042.       2043.       2049.       2064.       2071.       2074.       2078.       2081.       2075.       2065.    
        2062.       2062.       2062.       2057.       2049.       2049.       2045.       2048.       2059.       2068.    
        2079.       2075.       2056.       2053.       2058.       2062.       2064.       2061.       2053.    
  26    2117.       2117.       2117.       2117.       2117.       2117.       2117.       2117.       2117.       2117.    
        2117.       2117.       2117.       2117.       2117.       2126.       2131.       2134.       2150.       2168.    
        2185.       2210.       2234.       2255.       2274.       2274.       2259.       2237.       2212.       2203.    
        2202.       2196.       2187.       2177.       2164.       2151.       2135.       2119.       2108.       2103.    
        2098.       2088.       2083.       2079.       2077.       2072.       2061.       2042.       2033.       2026.    
        2027.       2032.       2040.       2053.       2064.       2068.       2071.       2074.       2070.       2061.    
        2057.       2059.       2058.       2058.       2057.       2050.       2049.       2042.       2049.       2058.    
        2065.       2062.       2046.       2036.       2036.       2043.       2051.       2052.       2046.    
  27    2117.       2117.       2117.       2117.       2117.       2117.       2117.       2117.       2117.       2117.    
        2117.       2117.       2119.       2125.       2134.       2148.       2154.       2172.       2188.       2203.    
        2226.       2247.       2275.       2286.       2273.       2252.       2235.       2217.       2193.       2175.    
        2179.       2176.       2170.       2159.       2147.       2130.       2112.       2101.       2095.       2088.    
        2080.       2074.       2068.       2068.       2067.       2066.       2058.       2046.       2037.       2026.    
        2019.       2023.       2031.       2043.       2058.       2062.       2064.       2065.       2061.       2056.    
        2052.       2052.       2053.       2057.       2057.       2054.       2052.       2041.       2043.       2048.    
        2052.       2051.       2044.       2033.       2032.       2034.       2038.       2042.       2038.    
  28    2117.       2117.       2117.       2117.       2117.       2117.       2117.       2117.       2119.       2125.    
        2129.       2135.       2146.       2155.       2164.       2181.       2197.       2217.       2229.       2247.    
        2264.       2274.       2283.       2273.       2250.       2229.       2213.       2198.       2179.       2166.    
        2163.       2162.       2154.       2142.       2129.       2113.       2097.       2088.       2080.       2072.    
        2064.       2060.       2056.       2057.       2058.       2058.       2054.       2048.       2039.       2028.    
        2014.       2017.       2023.       2036.       2047.       2052.       2056.       2056.       2053.       2051.    
        2046.       2046.       2046.       2053.       2057.       2057.       2055.       2039.       2036.       2042.    
        2045.       2045.       2042.       2034.       2027.       2028.       2032.       2035.       2036.    
  29    2117.       2117.       2117.       2117.       2117.       2117.       2118.       2134.       2143.       2147.    
        2156.       2165.       2171.       2189.       2203.       2221.       2242.       2268.       2277.       2294.    
        2296.       2277.       2269.       2250.       2225.       2207.       2194.       2181.       2170.       2159.    
        2151.       2147.       2138.       2127.       2115.       2099.       2086.       2076.       2067.       2060.    
        2053.       2047.       2045.       2048.       2048.       2049.       2050.       2045.       2039.       2028.    
        2016.       2009.       2017.       2029.       2038.       2041.       2046.       2045.       2046.       2046.    
        2039.       2039.       2040.       2049.       2057.       2056.       2052.       2042.       2029.       2037.    
        2040.       2040.       2039.       2034.       2024.       2025.       2030.       2037.       2038.    
  30    2117.       2117.       2117.       2117.       2117.       2122.       2147.       2161.       2166.       2173.    
        2186.       2197.       2214.       2231.       2253.       2263.       2284.       2302.       2314.       2312.    
        2283.       2263.       2245.       2223.       2202.       2188.       2177.       2168.       2158.       2150.    
        2146.       2135.       2125.       2117.       2105.       2091.       2076.       2064.       2057.       2048.    
        2042.       2037.       2035.       2038.       2039.       2040.       2043.       2039.       2034.       2027.    
        2014.       2004.       2012.       2026.       2029.       2030.       2034.       2034.       2039.       2040.    
        2034.       2032.       2035.       2044.       2053.       2050.       2045.       2041.       2023.       2027.    
        2036.       2036.       2035.       2028.       2023.       2023.       2029.       2037.       2041.    
  31    2117.       2117.       2117.       2117.       2131.       2155.       2176.       2191.       2194.       2202.    
        2221.       2235.       2262.       2285.       2312.       2313.       2318.       2320.       2318.       2297.    
        2271.       2243.       2219.       2202.       2185.       2174.       2166.       2156.       2147.       2140.    
        2135.       2128.       2114.       2108.       2100.       2085.       2068.       2057.       2048.       2042.    
        2036.       2031.       2029.       2029.       2031.       2033.       2034.       2034.       2029.       2023.    
        2010.       1999.       2007.       2019.       2020.       2020.       2022.       2026.       2033.       2033.    
        2027.       2023.       2030.       2039.       2046.       2044.       2038.       2036.       2025.       2011.    
        2022.       2029.       2030.       2025.       2021.       2022.       2026.       2037.       2040.    
  32    2117.       2117.       2120.       2142.       2163.       2187.       2220.       2234.       2226.       2232.    
        2249.       2277.       2319.       2340.       2350.       2347.       2336.       2318.       2297.       2282.    
        2257.       2229.       2203.       2180.       2170.       2162.       2154.       2146.       2138.       2131.    
        2125.       2120.       2109.       2102.       2094.       2081.       2065.       2051.       2044.       2037.    
        2030.       2025.       2023.       2022.       2023.       2025.       2027.       2027.       2026.       2020.    
        2007.       1997.       1997.       2003.       2006.       2009.       2011.       2018.       2023.       2023.    
        2017.       2013.       2023.       2031.       2039.       2038.       2032.       2030.       2020.       2005.    
        2015.       2025.       2027.       2023.       2019.       2019.       2024.       2029.       2030.    
  33    2117.       2129.       2154.       2173.       2202.       2233.       2288.       2272.       2260.       2271.    
        2284.       2314.       2344.       2361.       2377.       2363.       2326.       2301.       2284.       2270.    
        2248.       2222.       2192.       2168.       2159.       2153.       2144.       2136.       2130.       2123.    
        2117.       2113.       2108.       2100.       2086.       2073.       2060.       2049.       2038.       2039.    
        2037.       2031.       2024.       2019.       2017.       2017.       2017.       2019.       2020.       2015.    
        2007.       1997.       1991.       1991.       1994.       1995.       1999.       2005.       2008.       2007.    
        2004.       2005.       2013.       2022.       2028.       2027.       2026.       2025.       2010.       2003.    
        2015.       2022.       2023.       2021.       2016.       2013.       2017.       2020.       2017.    
  34    2135.       2161.       2191.       2215.       2250.       2283.       2322.       2304.       2303.       2306.    
        2311.       2331.       2357.       2384.       2381.       2352.       2317.       2291.       2277.       2265.    
        2243.       2217.       2192.       2169.       2151.       2143.       2133.       2128.       2122.       2116.    
        2111.       2107.       2099.       2092.       2083.       2064.       2054.       2046.       2049.       2049.    
        2050.       2044.       2033.       2022.       2016.       2011.       2007.       2001.       2008.       2007.    
        2003.       1998.       1991.       1987.       1985.       1984.       1986.       1989.       1992.       1994.    
        1989.       1997.       2003.       2011.       2014.       2011.       2006.       2006.       1986.       1995.    
        2005.       2014.       2016.       2018.       2014.       2009.       2009.       2012.       2010.    
  35    2164.       2192.       2228.       2261.       2305.       2337.       2360.       2344.       2340.       2334.    
        2332.       2345.       2367.       2379.       2363.       2346.       2318.       2281.       2270.       2258.    
        2234.       2214.       2193.       2172.       2153.       2141.       2132.       2124.       2115.       2110.    
        2104.       2099.       2091.       2081.       2067.       2062.       2054.       2054.       2066.       2074.    
        2074.       2065.       2041.       2026.       2019.       2014.       2014.       2006.       1994.       1990.    
        1989.       1988.       1989.       1990.       1982.       1979.       1980.       1979.       1980.       1980.    
        1981.       1989.       1997.       1999.       2000.       2001.       1992.       1986.       1973.       1980.    
        1991.       2003.       2014.       2015.       2014.       2007.       1999.       1998.       2002.    
  36    2196.       2229.       2263.       2308.       2368.       2395.       2399.       2384.       2374.       2368.    
        2353.       2357.       2371.       2362.       2350.       2338.       2312.       2280.       2259.       2245.    
        2229.       2209.       2192.       2174.       2160.       2147.       2134.       2124.       2115.       2107.    
        2098.       2091.       2084.       2077.       2074.       2065.       2057.       2062.       2076.       2079.    
        2079.       2068.       2051.       2036.       2023.       2021.       2019.       2010.       1998.       1991.    
        1988.       1984.       1980.       1982.       1976.       1975.       1975.       1974.       1973.       1973.    
        1976.       1982.       1988.       1988.       1985.       1987.       1979.       1975.       1967.       1968.    
        1975.       1990.       2004.       2007.       2006.       2003.       1993.       1973.       1973.    
  37    2230.       2260.       2300.       2346.       2393.       2445.       2427.       2416.       2408.       2398.    
        2376.       2370.       2367.       2354.       2343.       2329.       2309.       2276.       2258.       2240.    
        2219.       2202.       2184.       2170.       2160.       2147.       2134.       2125.       2120.       2112.    
        2101.       2094.       2089.       2085.       2082.       2072.       2061.       2065.       2075.       2080.    
        2077.       2064.       2051.       2040.       2027.       2028.       2024.       2009.       2000.       1995.    
        1991.       1986.       1983.       1980.       1978.       1975.       1973.       1972.       1972.       1970.    
        1971.       1976.       1978.       1977.       1974.       1969.       1964.       1960.       1959.       1960.    
        1964.       1972.       1979.       1982.       1983.       1981.       1973.       1959.       1950.    
  38    2267.       2310.       2356.       2388.       2423.       2463.       2456.       2449.       2433.       2414.    
        2394.       2373.       2361.       2347.       2336.       2324.       2306.       2278.       2265.       2242.    
        2226.       2212.       2193.       2172.       2166.       2155.       2141.       2130.       2125.       2117.    
        2107.       2103.       2099.       2093.       2090.       2080.       2067.       2067.       2073.       2081.    
        2074.       2058.       2049.       2041.       2035.       2037.       2032.       2017.       2006.       1999.    
        1994.       1989.       1986.       1984.       1982.       1978.       1975.       1974.       1972.       1971.    
        1967.       1963.       1963.       1963.       1963.       1960.       1958.       1955.       1953.       1951.    
        1950.       1953.       1957.       1959.       1962.       1958.       1947.       1938.       1932.    
  39    2314.       2357.       2405.       2436.       2458.       2477.       2474.       2460.       2433.       2413.    
        2389.       2372.       2354.       2342.       2333.       2321.       2304.       2287.       2271.       2257.    
        2233.       2216.       2196.       2181.       2177.       2166.       2147.       2137.       2131.       2120.    
        2115.       2111.       2103.       2097.       2096.       2086.       2072.       2071.       2075.       2084.    
        2080.       2061.       2054.       2045.       2046.       2050.       2047.       2035.       2015.       2004.    
        1999.       1993.       1990.       1989.       1987.       1985.       1982.       1979.       1976.       1974.    
        1973.       1977.       1985.       1991.       1983.       1969.       1962.       1953.       1948.       1946.    
        1942.       1942.       1942.       1944.       1943.       1940.       1935.       1932.       1928.    
  40    2368.       2407.       2437.       2469.       2492.       2497.       2484.       2462.       2433.       2410.    
        2388.       2368.       2355.       2344.       2333.       2323.       2311.       2296.       2281.       2261.    
        2238.       2218.       2202.       2198.       2197.       2177.       2162.       2150.       2138.       2127.    
        2124.       2116.       2110.       2105.       2101.       2091.       2074.       2078.       2087.       2090.    
        2089.       2080.       2063.       2052.       2054.       2064.       2059.       2044.       2023.       2014.    
        2005.       2000.       2000.       1997.       1998.       1999.       1996.       1999.       1994.       1980.    
        1978.       1987.       2001.       2006.       2008.       2005.       1989.       1961.       1954.       1949.    
        1945.       1941.       1938.       1936.       1934.       1933.       1931.       1929.       1928.    
  41    2393.       2452.       2479.       2491.       2520.       2518.       2502.       2467.       2443.       2418.    
        2393.       2373.       2357.       2346.       2340.       2332.       2322.       2309.       2283.       2264.    
        2248.       2228.       2215.       2211.       2207.       2194.       2173.       2159.       2142.       2138.    
        2129.       2121.       2114.       2109.       2104.       2093.       2080.       2090.       2099.       2100.    
        2096.       2090.       2075.       2062.       2060.       2076.       2071.       2054.       2039.       2022.    
        2016.       2012.       2014.       2013.       2012.       2019.       2012.       2017.       2002.       1989.    
        1985.       1996.       2007.       2014.       2017.       2017.       2002.       1975.       1962.       1954.    
        1949.       1944.       1941.       1938.       1938.       1936.       1935.       1935.       1935.    
  42    2399.       2448.       2495.       2524.       2541.       2535.       2523.       2491.       2463.       2432.    
        2399.       2378.       2366.       2356.       2357.       2352.       2345.       2325.       2294.       2272.    
        2254.       2240.       2222.       2208.       2200.       2188.       2170.       2159.       2152.       2143.    
        2133.       2123.       2119.       2114.       2107.       2094.       2090.       2106.       2111.       2108.    
        2105.       2096.       2083.       2075.       2070.       2072.       2082.       2076.       2063.       2035.    
        2031.       2029.       2032.       2034.       2034.       2034.       2030.       2020.       2005.       1995.    
        1993.       2004.       2015.       2021.       2023.       2017.       2003.       1982.       1967.       1959.    
        1952.       1946.       1944.       1943.       1942.       1941.       1941.       1941.       1942.    
  43    2429.       2466.       2510.       2541.       2552.       2551.       2539.       2500.       2469.       2438.    
        2408.       2387.       2382.       2379.       2375.       2369.       2363.       2343.       2316.       2282.    
        2264.       2249.       2231.       2222.       2207.       2196.       2187.       2178.       2163.       2147.    
        2137.       2132.       2125.       2118.       2110.       2096.       2099.       2115.       2120.       2116.    
        2115.       2114.       2094.       2083.       2078.       2080.       2091.       2091.       2082.       2060.    
        2057.       2053.       2055.       2056.       2053.       2046.       2036.       2022.       2013.       2000.    
        1999.       2009.       2020.       2028.       2028.       2020.       2006.       1987.       1971.       1962.    
        1955.       1951.       1947.       1951.       1951.       1950.       1948.       1946.       1950.    
  44    2463.       2497.       2540.       2553.       2556.       2554.       2536.       2503.       2467.       2435.    
        2411.       2398.       2390.       2383.       2374.       2368.       2363.       2356.       2333.       2306.    
        2278.       2250.       2254.       2242.       2227.       2213.       2200.       2189.       2172.       2152.    
        2144.       2139.       2130.       2122.       2111.       2099.       2106.       2125.       2133.       2127.    
        2121.       2122.       2121.       2105.       2090.       2091.       2102.       2102.       2095.       2090.    
        2085.       2080.       2079.       2077.       2068.       2060.       2045.       2023.       2017.       2007.    
        2006.       2011.       2021.       2031.       2031.       2021.       2009.       1994.       1976.       1970.    
        1961.       1955.       1952.       1963.       1961.       1959.       1955.       1952.       1959.    
  45    2507.       2535.       2564.       2555.       2547.       2546.       2529.       2499.       2455.       2429.    
        2407.       2393.       2382.       2370.       2354.       2346.       2345.       2340.       2330.       2308.    
        2274.       2280.       2267.       2251.       2238.       2224.       2207.       2192.       2176.       2158.    
        2150.       2142.       2135.       2126.       2113.       2102.       2115.       2136.       2148.       2142.    
        2131.       2122.       2119.       2114.       2103.       2099.       2112.       2112.       2113.       2114.    
        2111.       2107.       2107.       2101.       2084.       2071.       2050.       2031.       2023.       2016.    
        2010.       2013.       2021.       2029.       2029.       2020.       2010.       1997.       1987.       1978.    
        1963.       1960.       1964.       1977.       1979.       1974.       1967.       1959.       1967.    
  46    2515.       2566.       2575.       2556.       2540.       2533.       2520.       2484.       2447.       2421.    
        2397.       2380.       2366.       2352.       2341.       2336.       2329.       2321.       2306.       2306.    
        2309.       2298.       2278.       2267.       2252.       2231.       2209.       2194.       2181.       2167.    
        2154.       2145.       2137.       2125.       2114.       2106.       2119.       2139.       2153.       2148.    
        2139.       2128.       2120.       2113.       2105.       2103.       2114.       2120.       2127.       2132.    
        2134.       2138.       2134.       2120.       2105.       2082.       2058.       2038.       2031.       2026.    
        2017.       2022.       2025.       2032.       2029.       2017.       2008.       1997.       1988.       1976.    
        1969.       1966.       1969.       1980.       1992.       1996.       1986.       1967.       1976.    
  47    2513.       2556.       2574.       2557.       2539.       2526.       2506.       2476.       2440.       2411.    
        2389.       2366.       2356.       2349.       2340.       2335.       2334.       2332.       2329.       2328.    
        2320.       2308.       2293.       2277.       2258.       2233.       2213.       2201.       2189.       2176.    
        2161.       2148.       2139.       2130.       2121.       2109.       2115.       2131.       2143.       2143.    
        2139.       2136.       2126.       2115.       2106.       2105.       2113.       2122.       2133.       2143.    
        2152.       2160.       2155.       2139.       2119.       2095.       2065.       2047.       2035.       2027.    
        2024.       2029.       2032.       2034.       2029.       2016.       2007.       1997.       1988.       1977.    
        1976.       1972.       1973.       1983.       1994.       2001.       1995.       1973.       1982.    
  48    2513.       2561.       2576.       2562.       2545.       2524.       2495.       2465.       2430.       2406.    
        2377.       2362.       2356.       2350.       2347.       2344.       2350.       2354.       2353.       2351.    
        2333.       2315.       2297.       2278.       2257.       2235.       2217.       2208.       2198.       2185.    
        2169.       2156.       2145.       2139.       2139.       2134.       2118.       2121.       2131.       2137.    
        2140.       2144.       2141.       2130.       2117.       2107.       2111.       2127.       2140.       2153.    
        2169.       2177.       2168.       2156.       2139.       2111.       2080.       2058.       2040.       2031.    
        2034.       2037.       2040.       2037.       2026.       2018.       2009.       2001.       1993.       1986.    
        1982.       1979.       1982.       1987.       1999.       2011.       2001.       1983.       1981.    
  49    2513.       2559.       2578.       2564.       2548.       2527.       2485.       2455.       2426.       2403.    
        2381.       2365.       2364.       2361.       2356.       2361.       2365.       2368.       2370.       2353.    
        2331.       2313.       2296.       2275.       2260.       2241.       2230.       2215.       2203.       2189.    
        2175.       2165.       2153.       2150.       2149.       2148.       2134.       2121.       2125.       2133.    
        2143.       2150.       2153.       2148.       2135.       2117.       2109.       2123.       2139.       2161.    
        2181.       2197.       2188.       2171.       2153.       2126.       2096.       2070.       2052.       2040.    
        2042.       2046.       2048.       2045.       2030.       2021.       2014.       2007.       1999.       1993.    
        1990.       1986.       1991.       1998.       2005.       2013.       2013.       1994.       1988.    
  50    2525.       2564.       2585.       2572.       2555.       2519.       2482.       2451.       2416.       2401.    
        2392.       2375.       2379.       2377.       2377.       2382.       2381.       2373.       2358.       2340.    
        2323.       2307.       2292.       2274.       2261.       2248.       2237.       2226.       2211.       2195.    
        2180.       2171.       2162.       2157.       2154.       2150.       2138.       2127.       2125.       2134.    
        2145.       2154.       2161.       2162.       2156.       2132.       2117.       2118.       2133.       2158.    
        2186.       2206.       2206.       2190.       2167.       2144.       2112.       2088.       2068.       2053.    
        2048.       2054.       2062.       2059.       2042.       2028.       2019.       2012.       2005.       2001.    
        1997.       1993.       2000.       2006.       2012.       2019.       2024.       2014.       2001.    
  51    2533.       2568.       2579.       2572.       2548.       2507.       2477.       2445.       2408.       2397.    
        2387.       2392.       2403.       2401.       2406.       2406.       2390.       2363.       2344.       2330.    
        2318.       2307.       2294.       2281.       2272.       2256.       2240.       2228.       2217.       2201.    
        2187.       2176.       2167.       2161.       2155.       2149.       2137.       2129.       2128.       2134.    
        2145.       2156.       2164.       2169.       2168.       2150.       2125.       2117.       2122.       2149.    
        2179.       2205.       2222.       2207.       2181.       2156.       2128.       2102.       2081.       2071.    
        2057.       2061.       2070.       2073.       2060.       2039.       2024.       2018.       2012.       2014.    
        2009.       1998.       2005.       2014.       2020.       2026.       2032.       2021.       2011.    
  52    2555.       2573.       2578.       2565.       2536.       2495.       2465.       2438.       2411.       2397.    
        2403.       2411.       2420.       2426.       2428.       2422.       2408.       2382.       2364.       2343.    
        2325.       2313.       2303.       2290.       2279.       2264.       2245.       2230.       2217.       2206.    
        2194.       2180.       2170.       2162.       2154.       2146.       2137.       2129.       2130.       2134.    
        2144.       2155.       2166.       2172.       2177.       2169.       2146.       2125.       2121.       2136.    
        2169.       2201.       2221.       2218.       2198.       2171.       2138.       2114.       2094.       2081.    
        2071.       2072.       2077.       2079.       2074.       2053.       2034.       2026.       2027.       2027.    
        2023.       2008.       2010.       2024.       2031.       2037.       2048.       2042.       2025.    
  53    2582.       2586.       2584.       2564.       2526.       2491.       2462.       2429.       2415.       2409.    
        2419.       2426.       2438.       2444.       2445.       2442.       2432.       2412.       2384.       2363.    
        2344.       2325.       2313.       2302.       2293.       2277.       2255.       2236.       2218.       2205.    
        2194.       2183.       2172.       2163.       2154.       2145.       2139.       2132.       2132.       2138.    
        2148.       2162.       2172.       2183.       2189.       2188.       2167.       2141.       2134.       2136.    
        2164.       2193.       2219.       2225.       2206.       2177.       2150.       2124.       2103.       2090.    
        2085.       2083.       2083.       2083.       2076.       2059.       2043.       2036.       2037.       2039.    
        2036.       2025.       2017.       2033.       2050.       2053.       2062.       2060.       2038.    
  54    2604.       2599.       2587.       2556.       2513.       2486.       2469.       2452.       2429.       2429.    
        2433.       2440.       2452.       2457.       2459.       2465.       2460.       2433.       2409.       2388.    
        2361.       2341.       2327.       2315.       2306.       2289.       2265.       2245.       2225.       2206.    
        2192.       2183.       2171.       2162.       2153.       2145.       2141.       2135.       2137.       2147.    
        2161.       2173.       2190.       2202.       2213.       2213.       2188.       2161.       2152.       2144.    
        2159.       2190.       2216.       2228.       2215.       2184.       2159.       2137.       2114.       2100.    
        2095.       2096.       2093.       2090.       2086.       2068.       2053.       2046.       2050.       2053.    
        2054.       2042.       2029.       2037.       2053.       2061.       2066.       2066.       2058.    
  55    2618.       2614.       2586.       2557.       2533.       2508.       2483.       2465.       2441.       2447.    
        2445.       2456.       2464.       2469.       2473.       2479.       2481.       2453.       2428.       2407.    
        2380.       2357.       2339.       2325.       2313.       2297.       2275.       2254.       2232.       2209.    
        2194.       2182.       2171.       2161.       2153.       2146.       2143.       2138.       2144.       2157.    
        2172.       2189.       2207.       2223.       2235.       2236.       2205.       2180.       2166.       2159.    
        2165.       2187.       2212.       2232.       2225.       2194.       2169.       2153.       2134.       2112.    
        2108.       2106.       2104.       2098.       2091.       2078.       2067.       2058.       2062.       2067.    
        2068.       2066.       2041.       2048.       2058.       2065.       2072.       2072.       2071.    
  56    2628.       2609.       2575.       2545.       2535.       2525.       2504.       2475.       2466.       2456.    
        2453.       2469.       2478.       2479.       2484.       2492.       2493.       2471.       2450.       2428.    
        2405.       2378.       2354.       2337.       2320.       2306.       2285.       2263.       2238.       2212.    
        2199.       2186.       2172.       2161.       2155.       2150.       2146.       2143.       2150.       2164.    
        2182.       2201.       2222.       2239.       2254.       2254.       2219.       2198.       2182.       2175.    
        2170.       2183.       2211.       2234.       2232.       2202.       2182.       2164.       2146.       2128.    
        2118.       2119.       2118.       2108.       2096.       2086.       2076.       2070.       2072.       2080.    
        2085.       2080.       2052.       2057.       2069.       2075.       2076.       2078.       2078.    
  57    2638.       2599.       2549.       2534.       2537.       2532.       2507.       2508.       2481.       2467.    
        2482.       2493.       2494.       2492.       2498.       2505.       2506.       2491.       2474.       2450.    
        2423.       2401.       2369.       2350.       2330.       2313.       2295.       2273.       2243.       2221.    
        2203.       2187.       2174.       2163.       2156.       2151.       2147.       2148.       2155.       2167.    
        2182.       2202.       2226.       2241.       2256.       2263.       2242.       2214.       2198.       2189.    
        2181.       2189.       2211.       2238.       2245.       2215.       2195.       2177.       2161.       2146.    
        2132.       2137.       2135.       2122.       2106.       2096.       2088.       2080.       2081.       2088.    
        2095.       2090.       2063.       2070.       2075.       2079.       2081.       2083.       2085.    
  58    2641.       2597.       2553.       2535.       2525.       2517.       2530.       2526.       2492.       2494.    
        2504.       2513.       2514.       2505.       2510.       2516.       2520.       2507.       2485.       2461.    
        2435.       2413.       2389.       2363.       2343.       2323.       2305.       2280.       2252.       2227.    
        2210.       2192.       2178.       2167.       2158.       2153.       2150.       2150.       2156.       2165.    
        2178.       2197.       2216.       2233.       2254.       2266.       2271.       2237.       2218.       2206.    
        2198.       2198.       2215.       2242.       2254.       2230.       2210.       2193.       2177.       2160.    
        2149.       2153.       2150.       2138.       2122.       2109.       2099.       2093.       2093.       2098.    
        2095.       2087.       2074.       2081.       2083.       2084.       2086.       2092.       2096.    
  59    2648.       2611.       2564.       2542.       2531.       2523.       2548.       2546.       2534.       2520.    
        2526.       2533.       2530.       2524.       2524.       2526.       2534.       2519.       2496.       2472.    
        2442.       2422.       2400.       2373.       2352.       2333.       2311.       2285.       2257.       2235.    
        2214.       2198.       2181.       2170.       2160.       2155.       2151.       2152.       2158.       2165.    
        2178.       2195.       2215.       2233.       2252.       2270.       2277.       2263.       2236.       2224.    
        2215.       2212.       2219.       2246.       2260.       2245.       2225.       2211.       2196.       2179.    
        2166.       2170.       2164.       2152.       2136.       2119.       2113.       2105.       2107.       2106.    
        2096.       2087.       2085.       2089.       2088.       2090.       2096.       2103.       2107.    
  60    2637.       2632.       2600.       2575.       2565.       2550.       2575.       2578.       2573.       2560.    
        2560.       2553.       2541.       2534.       2531.       2536.       2543.       2529.       2506.       2479.    
        2453.       2428.       2404.       2388.       2372.       2346.       2319.       2290.       2267.       2242.    
        2217.       2203.       2187.       2173.       2164.       2157.       2153.       2154.       2158.       2166.    
        2177.       2196.       2215.       2232.       2255.       2278.       2288.       2280.       2259.       2238.    
        2229.       2226.       2225.       2245.       2262.       2256.       2241.       2228.       2211.       2198.    
        2188.       2194.       2188.       2170.       2152.       2135.       2128.       2122.       2120.       2111.    
        2098.       2091.       2093.       2096.       2095.       2099.       2107.       2112.       2115.    
  61    2614.       2626.       2629.       2621.       2602.       2599.       2598.       2594.       2603.       2605.    
        2588.       2575.       2550.       2530.       2514.       2527.       2533.       2536.       2509.       2484.    
        2458.       2430.       2408.       2390.       2382.       2350.       2323.       2297.       2273.       2245.    
        2225.       2211.       2190.       2177.       2168.       2159.       2156.       2155.       2159.       2166.    
        2178.       2194.       2214.       2234.       2256.       2282.       2303.       2299.       2276.       2256.    
        2241.       2235.       2236.       2244.       2262.       2266.       2258.       2245.       2228.       2215.    
        2205.       2211.       2211.       2189.       2170.       2154.       2142.       2133.       2127.       2112.    
        2103.       2097.       2101.       2103.       2103.       2110.       2116.       2119.       2122.    
  62    2586.       2600.       2623.       2626.       2614.       2601.       2597.       2594.       2604.       2619.    
        2600.       2562.       2524.       2493.       2474.       2479.       2505.       2517.       2509.       2487.    
        2461.       2433.       2407.       2392.       2377.       2349.       2328.       2303.       2276.       2251.    
        2230.       2213.       2195.       2181.       2171.       2163.       2159.       2157.       2159.       2167.    
        2178.       2193.       2214.       2232.       2253.       2280.       2306.       2313.       2301.       2273.    
        2257.       2247.       2246.       2248.       2260.       2274.       2274.       2263.       2249.       2235.    
        2219.       2229.       2226.       2210.       2189.       2172.       2158.       2142.       2127.       2116.    
        2107.       2106.       2109.       2108.       2112.       2117.       2123.       2127.       2130.    
  63    2552.       2587.       2612.       2622.       2608.       2582.       2581.       2575.       2586.       2606.    
        2585.       2541.       2500.       2459.       2437.       2437.       2460.       2467.       2485.       2489.    
        2464.       2429.       2407.       2391.       2377.       2352.       2331.       2307.       2283.       2253.    
        2233.       2218.       2203.       2184.       2173.       2166.       2162.       2159.       2162.       2168.    
        2177.       2192.       2211.       2229.       2252.       2272.       2298.       2321.       2318.       2298.    
        2271.       2261.       2256.       2255.       2265.       2278.       2289.       2283.       2272.       2264.    
        2252.       2250.       2247.       2229.       2211.       2187.       2167.       2151.       2135.       2120.    
        2112.       2113.       2114.       2115.       2118.       2124.       2129.       2134.       2138.    
  64    2516.       2548.       2583.       2602.       2609.       2572.       2542.       2532.       2548.       2588.    
        2571.       2527.       2480.       2433.       2397.       2397.       2408.       2417.       2458.       2475.    
        2461.       2427.       2401.       2385.       2379.       2359.       2337.       2314.       2291.       2259.    
        2240.       2221.       2208.       2193.       2176.       2168.       2164.       2162.       2163.       2167.    
        2177.       2189.       2208.       2226.       2247.       2270.       2294.       2316.       2328.       2320.    
        2297.       2281.       2276.       2268.       2270.       2281.       2294.       2302.       2298.       2287.    
        2278.       2274.       2265.       2251.       2230.       2201.       2173.       2155.       2139.       2125.    
        2119.       2119.       2120.       2120.       2123.       2128.       2135.       2142.       2147.    
  65    2459.       2505.       2549.       2580.       2564.       2551.       2512.       2483.       2506.       2534.    
        2563.       2511.       2463.       2407.       2368.       2348.       2353.       2372.       2407.       2435.    
        2455.       2421.       2378.       2359.       2368.       2360.       2339.       2315.       2296.       2267.    
        2239.       2217.       2210.       2197.       2184.       2171.       2166.       2164.       2164.       2168.    
        2175.       2188.       2203.       2220.       2242.       2263.       2286.       2315.       2331.       2331.    
        2320.       2310.       2305.       2289.       2277.       2282.       2295.       2310.       2316.       2308.    
        2301.       2292.       2278.       2262.       2240.       2211.       2181.       2157.       2144.       2131.    
        2128.       2126.       2127.       2127.       2127.       2133.       2139.       2146.       2151.    
  66    2415.       2457.       2502.       2510.       2493.       2493.       2464.       2426.       2453.       2482.    
        2519.       2515.       2448.       2396.       2352.       2312.       2302.       2333.       2360.       2393.    
        2423.       2401.       2361.       2327.       2320.       2326.       2330.       2318.       2293.       2269.    
        2242.       2207.       2190.       2193.       2187.       2176.       2170.       2168.       2164.       2167.    
        2174.       2185.       2198.       2215.       2233.       2254.       2277.       2299.       2316.       2333.    
        2328.       2325.       2324.       2307.       2292.       2288.       2298.       2315.       2329.       2326.    
        2318.       2304.       2289.       2268.       2246.       2215.       2184.       2163.       2151.       2143.    
        2141.       2136.       2135.       2132.       2130.       2134.       2141.       2147.       2155.    
  67    2375.       2416.       2443.       2450.       2439.       2424.       2402.       2377.       2404.       2431.    
        2471.       2484.       2439.       2385.       2331.       2288.       2258.       2285.       2316.       2348.    
        2368.       2360.       2334.       2286.       2263.       2269.       2283.       2296.       2284.       2270.    
        2227.       2190.       2166.       2168.       2176.       2178.       2173.       2171.       2164.       2164.    
        2170.       2178.       2191.       2205.       2222.       2241.       2261.       2278.       2297.       2310.    
        2320.       2322.       2332.       2322.       2304.       2296.       2301.       2315.       2334.       2339.    
        2330.       2317.       2292.       2272.       2250.       2220.       2193.       2168.       2159.       2154.    
        2146.       2141.       2136.       2132.       2131.       2135.       2141.       2148.       2158.    
  68    2343.       2386.       2380.       2393.       2396.       2369.       2349.       2328.       2356.       2382.    
        2414.       2423.       2391.       2353.       2303.       2255.       2219.       2243.       2272.       2301.    
        2308.       2290.       2303.       2269.       2205.       2214.       2218.       2235.       2238.       2212.    
        2203.       2163.       2136.       2138.       2145.       2154.       2161.       2161.       2160.       2159.    
        2160.       2169.       2179.       2191.       2211.       2224.       2242.       2261.       2275.       2286.    
        2300.       2316.       2330.       2330.       2314.       2304.       2301.       2311.       2327.       2347.    
        2336.       2322.       2300.       2278.       2256.       2226.       2200.       2179.       2169.       2158.    
        2148.       2140.       2133.       2131.       2130.       2135.       2140.       2147.       2152.    
  69    2318.       2343.       2319.       2338.       2333.       2319.       2305.       2280.       2311.       2339.    
        2352.       2371.       2346.       2313.       2270.       2224.       2190.       2201.       2224.       2249.    
        2240.       2221.       2227.       2254.       2168.       2154.       2155.       2161.       2167.       2148.    
        2156.       2141.       2097.       2089.       2103.       2098.       2126.       2138.       2136.       2136.    
        2139.       2157.       2165.       2175.       2188.       2199.       2218.       2236.       2254.       2269.    
        2287.       2308.       2324.       2336.       2320.       2306.       2300.       2308.       2319.       2337.    
        2349.       2331.       2310.       2288.       2265.       2237.       2212.       2193.       2176.       2159.    
        2147.       2136.       2129.       2125.       2128.       2134.       2137.       2141.       2142.    
  70    2269.       2289.       2276.       2286.       2280.       2270.       2256.       2241.       2266.       2278.    
        2292.       2310.       2302.       2259.       2229.       2197.       2155.       2157.       2179.       2185.    
        2169.       2174.       2172.       2148.       2120.       2092.       2096.       2103.       2101.       2087.    
        2102.       2094.       2064.       2046.       2057.       2058.       2082.       2093.       2100.       2099.    
        2121.       2136.       2143.       2152.       2165.       2172.       2185.       2208.       2228.       2249.    
        2267.       2291.       2314.       2337.       2321.       2302.       2293.       2303.       2313.       2327.    
        2341.       2345.       2324.       2300.       2278.       2247.       2227.       2207.       2185.       2164.    
        2146.       2134.       2121.       2120.       2126.       2130.       2127.       2128.       2127.    
  71    2227.       2236.       2238.       2242.       2235.       2228.       2218.       2207.       2219.       2223.    
        2235.       2242.       2243.       2218.       2188.       2164.       2123.       2117.       2133.       2134.    
        2122.       2126.       2108.       2093.       2074.       2043.       2044.       2054.       2055.       2036.    
        2057.       2044.       2022.       2014.       2017.       2021.       2035.       2044.       2054.       2054.    
        2085.       2105.       2102.       2114.       2130.       2144.       2157.       2179.       2202.       2224.    
        2242.       2270.       2300.       2320.       2315.       2296.       2289.       2297.       2302.       2314.    
        2327.       2336.       2339.       2313.       2291.       2255.       2242.       2221.       2199.       2171.    
        2149.       2129.       2115.       2116.       2124.       2124.       2119.       2117.       2112.    
 #Sagehen-GRID Simulation -- Example problem for GSFLOW
 #  (File modified for version 1.1.00 release)
 #Budget output is written to the List file (sagehen.mf.list) at
 #  the end of the steady-state simulation and
 #  September 30 of 1981, 1985, 1990, 1995, and 1996
 #Calculated heads are written to the List file (sagehen.mf.list)
 #  and to the head output file (unit 58) at
 #  the end of the steady-state simulation and
 #  September 30, 1996

 OUTPUT CONTROL IS SPECIFIED ONLY AT TIME STEPS FOR WHICH OUTPUT IS DESIRED
 HEAD PRINT FORMAT CODE IS   0    DRAWDOWN PRINT FORMAT CODE IS   0
 HEADS WILL BE SAVED ON UNIT   58    DRAWDOWNS WILL BE SAVED ON UNIT    0
 # MODFLOW2005 NWT Input File
 # SAGEHEN-GRID Test Problem
 #HEADTOL  FLUXTOL MAXITEROUT THICKFACT   LINMETH    IPRNWT     IBOTAV                OPTIONS  [DBDTHETA]  [DBDKAPPA] [DBDGAMMA] [MOMFACT] [BACKFLAG] [MAXBACKITER] [BACKTOL] [BACKREDUCE]
 # [IACL] [NORDER]    [LEVEL]   [NORTH] [IREDSYS] [RRCTOLS] [IDROPTOL]   [EPSRN]  [HCLOSEXMD] [MXITERXMD]

 NWT1 -- Newton Solver, VERSION 1.1.4, 4/01/2018
         INPUT READ FROM UNIT 17

 SPECIFIED OPTION:
 SOLVER INPUT VALUES ARE SPECIFIED BY USER
 ***XMD linear solver will be used***
 
   CONVERGENCE CRITERION OF   0.100000E-03 FOR HEAD SOLUTION
   AND A TOLERANCE OF   0.100000E+04 FOR FLOW SOLUTION AND 
   A MAXIMUM OF   300 OUTER ITERATIONS. 


   D-B-D REDUCTION FACTOR OF    0.800000E+00 AND 
   A D-B-D INCREASE FACTOR OF    0.100000E-04 AND 
   A D-B-D RELAXATION OF    0.000000E+00 AND 
   A MOMENTUM FACTOR OF    0.100000E+00 .


 ***BACKTRACKING IS INACTIVE***
 XMD -- LINEAR SOLUTION BY XMD PACKAGE VERSION 1.30
     BY MOTOMU IBARAKI, OHIO STATE UNIVERSITY, COLOMBUS, OH
                 INPUT READ FROM UNIT 17
 ACCELERATION METHOD                    (IACL) =         1
 NODE ORDERING FLAG                   (NORDER) =         0
 LEVEL OF FILL                         (LEVEL) =         0
 MAXIMUM NUMBER OF ORTHOGONALIZATIONS  (NORTH) =         7
 INDEX FOR USING REDUCED SYSTEM      (IREDSYS) =         0
 RESID. REDUCTION CONVERGE CRITERION  (RRCTOL) =  0.000000E+00
 INDEX FOR USING DROP TOLERANCE     (IDROPTOL) =         1
 DROP TOLERANCE VALUE                  (EPSRN) =  0.500000E-02
 CONVERGENCE CRITERIA OF           (HCLOSEXMD) =  0.100000E-02
 MAX. NUMBER OF LINEAR ITERATIONS  (MXITERXMD) =       200


 UPW1 -- UPSTREAM WEIGHTING FLOW PACKAGE, VERSION 1.1.4, 4/01/2018
         INPUT READ FROM UNIT 12

 #Sagehen-GRID Simulation -- Example problem for GSFLOW
 No named parameters

   LAYER FLAGS:
 LAYER       LAYTYP          LAYAVG    CHANI           LAYVKA           LAYWET
 ---------------------------------------------------------------------------
    1             1             0     1.000E+00             0             0
    2             1             0     1.000E+00             0             0
    3             0             0     1.000E+00             0             0

   INTERPRETATION OF LAYER FLAGS:
                        INTERBLOCK     HORIZONTAL    DATA IN
         LAYER TYPE   TRANSMISSIVITY   ANISOTROPY   ARRAY VKA   WETTABILITY
 LAYER   (LAYTYP)        (LAYAVG)      (CHANI)     (LAYVKA)       (LAYWET)
 ---------------------------------------------------------------------------
    1   CONVERTIBLE      HARMONIC     1.000E+00    VERTICAL K  NON-WETTABLE
    2   CONVERTIBLE      HARMONIC     1.000E+00    VERTICAL K  NON-WETTABLE
    3      CONFINED      HARMONIC     1.000E+00    VERTICAL K  NON-WETTABLE

    HYD. COND. ALONG ROWS =   0.00000     FOR LAYER   1

      VERTICAL HYD. COND. =   0.00000     FOR LAYER   1

         SPECIFIC STORAGE =   0.00000     FOR LAYER   1

           SPECIFIC YIELD =   0.00000     FOR LAYER   1



              HYD. COND. ALONG ROWS FOR LAYER   2
 READING ON UNIT   12 WITH FORMAT: (FREE)              

            1           2           3           4           5           6           7           8           9          10
           11          12          13          14          15          16          17          18          19          20
           21          22          23          24          25          26          27          28          29          30
           31          32          33          34          35          36          37          38          39          40
           41          42          43          44          45          46          47          48          49          50
           51          52          53          54          55          56          57          58          59          60
           61          62          63          64          65          66          67          68          69          70
           71          72          73          74          75          76          77          78          79
 ........................................................................................................................
   1    0.000       0.000       0.000       0.000       0.000       0.000       0.000       0.000       0.000       0.000    
        0.000       0.000       0.000       0.000       0.000       0.000       0.000       0.000       0.000       0.000    
        0.000       0.000       0.000       0.000       0.000       0.000       0.000       0.000       0.000       0.000    
        0.000       0.000       0.000       0.000       0.000       0.000       0.000       0.000       0.000       0.000    
        0.000       0.000       0.000       0.000       0.000       0.000       0.000       0.000       0.000       0.000    
        0.000      2.6000E-02  2.6000E-02   0.000       0.000       0.000       0.000       0.000       0.000       0.000    
        0.000       0.000       0.000       0.000       0.000       0.000       0.000       0.000       0.000       0.000    
        0.000       0.000       0.000       0.000       0.000       0.000       0.000       0.000       0.000    
   2    0.000       0.000       0.000       0.000       0.000       0.000       0.000       0.000       0.000       0.000    
        0.000       0.000       0.000       0.000       0.000       0.000       0.000       0.000       0.000       0.000    
        0.000       0.000       0.000       0.000       0.000       0.000       0.000       0.000       0.000       0.000    
        0.000       0.000       0.000       0.000       0.000       0.000       0.000       0.000       0.000       0.000    
        0.000       0.000       0.000       0.000       0.000       0.000       0.000       0.000       0.000       0.000    
        0.000      2.6000E-02  6.5000E-02  6.5000E-02   0.000       0.000       0.000       0.000       0.000       0.000    
        0.000       0.000       0.000       0.000       0.000       0.000       0.000       0.000       0.000       0.000    
        0.000       0.000       0.000       0.000       0.000       0.000       0.000       0.000       0.000    
   3    0.000       0.000       0.000       0.000       0.000       0.000       0.000       0.000       0.000       0.000    
        0.000       0.000       0.000       0.000       0.000       0.000       0.000       0.000       0.000       0.000    
        0.000       0.000       0.000       0.000       0.000       0.000       0.000       0.000       0.000       0.000    
        0.000       0.000       0.000       0.000       0.000       0.000       0.000       0.000       0.000       0.000    
        0.000       0.000       0.000       0.000       0.000       0.000       0.000       0.000       0.000       0.000    
        0.000      2.6000E-02  6.5000E-02  0.1300       0.000       0.000       0.000       0.000       0.000       0.000    
        0.000       0.000       0.000       0.000       0.000       0.000       0.000       0.000       0.000       0.000    
        0.000       0.000       0.000       0.000       0.000       0.000       0.000       0.000       0.000    
   4    0.000       0.000       0.000       0.000       0.000       0.000       0.000       0.000       0.000       0.000    
        0.000       0.000       0.000       0.000       0.000       0.000       0.000       0.000       0.000       0.000    
        0.000       0.000       0.000       0.000       0.000       0.000       0.000       0.000       0.000       0.000    
        0.000       0.000       0.000       0.000       0.000       0.000       0.000       0.000       0.000       0.000    
        0.000       0.000       0.000       0.000       0.000       0.000       0.000       0.000       0.000       0.000    
        0.000      6.5000E-02  6.5000E-02  0.1300      0.1300       0.000       0.000       0.000       0.000       0.000    
        0.000       0.000       0.000       0.000       0.000       0.000       0.000       0.000       0.000       0.000    
        0.000       0.000       0.000       0.000       0.000       0.000       0.000       0.000       0.000    
   5    0.000       0.000       0.000       0.000       0.000       0.000       0.000       0.000       0.000       0.000    
        0.000       0.000       0.000       0.000       0.000       0.000       0.000       0.000       0.000       0.000    
        0.000       0.000       0.000       0.000       0.000       0.000       0.000       0.000       0.000       0.000    
        0.000       0.000       0.000       0.000       0.000       0.000       0.000       0.000       0.000       0.000    
        0.000       0.000       0.000       0.000       0.000       0.000       0.000       0.000       0.000       0.000    
        0.000      6.5000E-02  6.5000E-02  6.5000E-02  0.1300      6.5000E-02  6.5000E-02   0.000       0.000       0.000    
        0.000       0.000       0.000       0.000       0.000       0.000       0.000       0.000       0.000       0.000    
        0.000       0.000       0.000       0.000       0.000       0.000       0.000       0.000       0.000    
   6    0.000       0.000       0.000       0.000       0.000       0.000       0.000       0.000       0.000       0.000    
        0.000       0.000       0.000       0.000       0.000       0.000       0.000       0.000       0.000       0.000    
        0.000       0.000       0.000       0.000       0.000       0.000       0.000       0.000       0.000       0.000    
        0.000       0.000       0.000       0.000       0.000       0.000       0.000       0.000       0.000       0.000    
        0.000       0.000       0.000       0.000       0.000       0.000       0.000       0.000       0.000       0.000    
        0.000      6.5000E-02  6.5000E-02  6.5000E-02  0.1300      0.1300      6.5000E-02  6.5000E-02  6.5000E-02   0.000    
        0.000       0.000       0.000      6.5000E-02  6.5000E-02   0.000       0.000       0.000       0.000       0.000    
        0.000       0.000       0.000       0.000       0.000       0.000       0.000       0.000       0.000    
   7    0.000       0.000       0.000       0.000       0.000       0.000       0.000       0.000       0.000       0.000    
        0.000       0.000       0.000       0.000       0.000       0.000       0.000       0.000       0.000       0.000    
        0.000       0.000       0.000       0.000       0.000       0.000       0.000       0.000       0.000       0.000    
        0.000       0.000       0.000       0.000       0.000       0.000       0.000       0.000       0.000       0.000    
        0.000       0.000       0.000       0.000       0.000       0.000       0.000       0.000       0.000       0.000    
        0.000      6.5000E-02  6.5000E-02  6.5000E-02  0.1300      0.1300      0.1300      6.5000E-02  6.5000E-02  6.5000E-02
       6.5000E-02  6.5000E-02  6.5000E-02  6.5000E-02  6.5000E-02  6.5000E-02   0.000       0.000       0.000       0.000    
        0.000       0.000       0.000       0.000       0.000       0.000       0.000       0.000       0.000    
   8    0.000       0.000       0.000       0.000       0.000       0.000       0.000       0.000       0.000       0.000    
        0.000       0.000       0.000       0.000       0.000       0.000       0.000       0.000       0.000       0.000    
        0.000       0.000       0.000       0.000       0.000       0.000       0.000       0.000       0.000       0.000    
        0.000       0.000       0.000       0.000       0.000       0.000       0.000       0.000       0.000       0.000    
        0.000       0.000       0.000       0.000       0.000       0.000       0.000       0.000       0.000       0.000    
        0.000      6.5000E-02  6.5000E-02  6.5000E-02  0.1300      0.1300      0.1300      6.5000E-02  6.5000E-02  6.5000E-02
       6.5000E-02  6.5000E-02  6.5000E-02  6.5000E-02  6.5000E-02  6.5000E-02  6.5000E-02  6.5000E-02   0.000       0.000    
        0.000       0.000       0.000       0.000       0.000       0.000       0.000       0.000       0.000    
   9    0.000       0.000       0.000       0.000       0.000       0.000       0.000       0.000       0.000       0.000    
        0.000       0.000       0.000       0.000       0.000       0.000       0.000       0.000       0.000       0.000    
        0.000       0.000       0.000       0.000       0.000       0.000       0.000       0.000       0.000       0.000    
        0.000       0.000       0.000       0.000       0.000       0.000       0.000       0.000       0.000       0.000    
        0.000       0.000       0.000       0.000       0.000       0.000       0.000       0.000       0.000       0.000    
       5.2000E-02  6.5000E-02  6.5000E-02  6.5000E-02  0.1300      0.1300      0.1300      6.5000E-02  6.5000E-02  6.5000E-02
       6.5000E-02  6.5000E-02  6.5000E-02  6.5000E-02  6.5000E-02  6.5000E-02  6.5000E-02  6.5000E-02  6.5000E-02   0.000    
        0.000       0.000       0.000       0.000       0.000       0.000       0.000       0.000       0.000    
  10    0.000       0.000       0.000       0.000       0.000       0.000       0.000       0.000       0.000       0.000    
        0.000       0.000       0.000       0.000       0.000       0.000       0.000       0.000       0.000       0.000    
        0.000       0.000       0.000       0.000       0.000       0.000       0.000       0.000       0.000       0.000    
        0.000       0.000       0.000       0.000       0.000       0.000       0.000       0.000       0.000       0.000    
        0.000       0.000       0.000       0.000       0.000       0.000       0.000       0.000       0.000      6.5000E-02
       6.5000E-02  6.5000E-02  6.5000E-02  6.5000E-02  6.5000E-02  0.1300      0.1300      0.1300      6.5000E-02  6.5000E-02
       6.5000E-02  6.5000E-02  6.5000E-02  6.5000E-02  6.5000E-02  6.5000E-02  6.5000E-02  6.5000E-02  6.5000E-02  6.5000E-02
        0.000       0.000       0.000       0.000       0.000       0.000       0.000       0.000       0.000    
  11    0.000       0.000       0.000       0.000       0.000       0.000       0.000       0.000       0.000       0.000    
        0.000       0.000       0.000       0.000       0.000       0.000       0.000       0.000       0.000       0.000    
        0.000       0.000       0.000       0.000       0.000       0.000       0.000       0.000       0.000       0.000    
        0.000       0.000       0.000       0.000       0.000       0.000       0.000       0.000       0.000       0.000    
        0.000       0.000       0.000       0.000       0.000       0.000       0.000       0.000      6.5000E-02  6.5000E-02
       6.5000E-02  6.5000E-02  6.5000E-02  6.5000E-02  6.5000E-02  0.1300      0.1300      0.1300      6.5000E-02  6.5000E-02
       6.5000E-02  6.5000E-02  6.5000E-02  6.5000E-02  6.5000E-02  6.5000E-02  6.5000E-02  6.5000E-02  6.5000E-02  6.5000E-02
       6.5000E-02   0.000       0.000       0.000       0.000       0.000       0.000       0.000       0.000    
  12    0.000       0.000       0.000       0.000       0.000       0.000       0.000       0.000       0.000       0.000    
        0.000       0.000       0.000       0.000       0.000       0.000       0.000       0.000       0.000       0.000    
        0.000       0.000       0.000       0.000       0.000       0.000       0.000       0.000       0.000       0.000    
        0.000       0.000       0.000       0.000       0.000       0.000       0.000       0.000       0.000       0.000    
        0.000      5.2000E-02  5.2000E-02   0.000       0.000       0.000       0.000      5.2000E-02  6.5000E-02  6.5000E-02
       6.5000E-02  6.5000E-02  6.5000E-02  6.5000E-02  6.5000E-02  0.1300      0.1300      0.1300      6.5000E-02  6.5000E-02
       6.5000E-02  6.5000E-02  6.5000E-02  6.5000E-02  6.5000E-02  6.5000E-02  6.5000E-02  6.5000E-02  6.5000E-02  6.5000E-02
       6.5000E-02   0.000       0.000       0.000       0.000       0.000       0.000       0.000       0.000    
  13    0.000       0.000       0.000       0.000       0.000       0.000       0.000       0.000       0.000       0.000    
        0.000       0.000       0.000       0.000       0.000       0.000       0.000       0.000       0.000       0.000    
        0.000       0.000       0.000       0.000       0.000       0.000       0.000       0.000       0.000       0.000    
        0.000       0.000       0.000       0.000       0.000       0.000       0.000       0.000      5.2000E-02  5.2000E-02
       5.2000E-02  5.2000E-02  5.2000E-02  5.2000E-02  5.2000E-02  5.2000E-02  5.2000E-02  5.2000E-02  6.5000E-02  6.5000E-02
       6.5000E-02  6.5000E-02  6.5000E-02  6.5000E-02  6.5000E-02  0.1300      0.1300      0.1300      6.5000E-02  6.5000E-02
       6.5000E-02  6.5000E-02  6.5000E-02  6.5000E-02  6.5000E-02  6.5000E-02  6.5000E-02  6.5000E-02  6.5000E-02  6.5000E-02
       6.5000E-02  6.5000E-02   0.000       0.000       0.000       0.000       0.000       0.000       0.000    
  14    0.000       0.000       0.000       0.000       0.000       0.000       0.000       0.000       0.000       0.000    
        0.000       0.000       0.000       0.000       0.000       0.000       0.000       0.000       0.000       0.000    
        0.000       0.000       0.000       0.000       0.000       0.000       0.000       0.000       0.000       0.000    
        0.000       0.000       0.000       0.000       0.000       0.000       0.000       0.000      5.2000E-02  5.2000E-02
       5.2000E-02  5.2000E-02  5.2000E-02  5.2000E-02  6.5000E-02  6.5000E-02  6.5000E-02  6.5000E-02  6.5000E-02  6.5000E-02
       6.5000E-02  6.5000E-02  6.5000E-02  6.5000E-02  6.5000E-02  0.1300      0.1300      0.1300      0.1300      0.1300    
       6.5000E-02  6.5000E-02  6.5000E-02  6.5000E-02  6.5000E-02  6.5000E-02  6.5000E-02  0.1300      6.5000E-02  6.5000E-02
       6.5000E-02  6.5000E-02  6.5000E-02   0.000       0.000       0.000       0.000       0.000       0.000    
  15    0.000       0.000       0.000       0.000       0.000       0.000       0.000       0.000       0.000       0.000    
        0.000       0.000       0.000       0.000       0.000       0.000       0.000       0.000       0.000       0.000    
        0.000       0.000       0.000       0.000       0.000       0.000       0.000       0.000       0.000       0.000    
        0.000       0.000       0.000       0.000       0.000       0.000       0.000      5.2000E-02  5.2000E-02  5.2000E-02
       6.5000E-02  6.5000E-02  6.5000E-02  6.5000E-02  6.5000E-02  6.5000E-02  6.5000E-02  6.5000E-02  6.5000E-02  6.5000E-02
       6.5000E-02  6.5000E-02  6.5000E-02  6.5000E-02  6.5000E-02  6.5000E-02  0.1300      0.1300      0.1300      0.1300    
       0.1300      6.5000E-02  6.5000E-02  0.1300      0.1300      0.1300      0.1300      0.1300      0.1300      6.5000E-02
       6.5000E-02  6.5000E-02  3.9000E-02   0.000       0.000       0.000       0.000       0.000       0.000    
  16    0.000       0.000       0.000       0.000       0.000       0.000       0.000       0.000       0.000       0.000    
        0.000       0.000       0.000       0.000       0.000       0.000       0.000       0.000       0.000       0.000    
        0.000       0.000       0.000       0.000       0.000       0.000       0.000       0.000       0.000       0.000    
        0.000       0.000       0.000       0.000       0.000       0.000      5.2000E-02  5.2000E-02  5.2000E-02  5.2000E-02
       5.2000E-02  6.5000E-02  6.5000E-02  6.5000E-02  6.5000E-02  6.5000E-02  6.5000E-02  6.5000E-02  6.5000E-02  6.5000E-02
       6.5000E-02  6.5000E-02  6.5000E-02  6.5000E-02  6.5000E-02  6.5000E-02  0.1300      0.1300      0.1300      0.1300    
       0.1300      0.1300      0.1300      0.1300      0.1300      0.1300      0.1300      0.1300      0.1300      6.5000E-02
       6.5000E-02  6.5000E-02  3.9000E-02  3.9000E-02   0.000       0.000       0.000       0.000       0.000    
  17    0.000       0.000       0.000       0.000       0.000       0.000       0.000       0.000       0.000       0.000    
        0.000       0.000       0.000       0.000       0.000       0.000       0.000       0.000       0.000       0.000    
        0.000       0.000       0.000       0.000       0.000       0.000       0.000       0.000       0.000       0.000    
        0.000       0.000       0.000       0.000       0.000      5.2000E-02  5.2000E-02  5.2000E-02  5.2000E-02  5.2000E-02
       5.2000E-02  6.5000E-02  6.5000E-02  6.5000E-02  6.5000E-02  6.5000E-02  6.5000E-02  6.5000E-02  6.5000E-02  6.5000E-02
       6.5000E-02  6.5000E-02  6.5000E-02  6.5000E-02  6.5000E-02  6.5000E-02  0.1300      0.1300      0.1300      0.1300    
       0.1300      0.1300      0.1300      0.1300      0.1300      0.1300      0.1300      0.1300      0.1300      6.5000E-02
       6.5000E-02  6.5000E-02  3.9000E-02  3.9000E-02   0.000       0.000       0.000       0.000       0.000    
  18    0.000       0.000       0.000       0.000       0.000       0.000       0.000       0.000       0.000       0.000    
        0.000       0.000       0.000       0.000       0.000       0.000       0.000       0.000       0.000       0.000    
        0.000       0.000       0.000       0.000       0.000       0.000       0.000       0.000       0.000       0.000    
        0.000       0.000       0.000       0.000      5.2000E-02  5.2000E-02  5.2000E-02  5.2000E-02  5.2000E-02  5.2000E-02
       5.2000E-02  5.2000E-02  5.2000E-02  6.5000E-02  6.5000E-02  6.5000E-02  6.5000E-02  6.5000E-02  6.5000E-02  6.5000E-02
       6.5000E-02  6.5000E-02  6.5000E-02  6.5000E-02  6.5000E-02  6.5000E-02  0.1300      0.1300      0.1300      0.1300    
       0.1300      0.1300      0.1300      0.1300      0.1300      0.1300      0.1300      0.1300      0.1300      0.1300    
       6.5000E-02  6.5000E-02  6.5000E-02  3.9000E-02   0.000       0.000       0.000       0.000       0.000    
  19    0.000       0.000       0.000       0.000       0.000       0.000       0.000       0.000       0.000       0.000    
        0.000       0.000       0.000       0.000       0.000       0.000       0.000       0.000       0.000       0.000    
        0.000       0.000       0.000       0.000       0.000       0.000       0.000       0.000       0.000       0.000    
        0.000       0.000       0.000      5.2000E-02  5.2000E-02  5.2000E-02  5.2000E-02  5.2000E-02  5.2000E-02  5.2000E-02
       5.2000E-02  5.2000E-02  5.2000E-02  5.2000E-02  6.5000E-02  6.5000E-02  6.5000E-02  6.5000E-02  6.5000E-02  6.5000E-02
       6.5000E-02  6.5000E-02  6.5000E-02  6.5000E-02  6.5000E-02  6.5000E-02  6.5000E-02  0.1300      0.1300      0.1300    
       0.1300      0.1300      0.1300      0.1300      0.1300      0.1300      0.1300      0.1300      0.1300      0.1300    
       6.5000E-02  6.5000E-02  6.5000E-02  3.9000E-02   0.000       0.000       0.000       0.000       0.000    
  20    0.000       0.000       0.000       0.000       0.000       0.000       0.000       0.000       0.000       0.000    
        0.000       0.000       0.000       0.000       0.000       0.000       0.000       0.000       0.000       0.000    
        0.000       0.000       0.000       0.000       0.000       0.000       0.000       0.000       0.000       0.000    
        0.000       0.000       0.000      2.6000E-02  5.2000E-02  5.2000E-02  5.2000E-02  5.2000E-02  5.2000E-02  5.2000E-02
       5.2000E-02  5.2000E-02  5.2000E-02  5.2000E-02  6.5000E-02  6.5000E-02  6.5000E-02  6.5000E-02  6.5000E-02  6.5000E-02
       6.5000E-02  6.5000E-02  6.5000E-02  6.5000E-02  6.5000E-02  6.5000E-02  6.5000E-02  0.1300      0.1300      0.1300    
       0.1300      0.1300      0.1300      0.1300      0.1300      0.1300      0.1300      0.1300      0.1300      0.1300    
       6.5000E-02  6.5000E-02  6.5000E-02  3.9000E-02   0.000       0.000       0.000       0.000       0.000    
  21    0.000       0.000       0.000       0.000       0.000       0.000       0.000       0.000       0.000       0.000    
        0.000       0.000       0.000       0.000       0.000       0.000       0.000       0.000       0.000       0.000    
        0.000       0.000       0.000       0.000       0.000       0.000       0.000       0.000       0.000       0.000    
        0.000       0.000      2.6000E-02  2.6000E-02  5.2000E-02  2.6000E-02  5.2000E-02  5.2000E-02  5.2000E-02  5.2000E-02
       5.2000E-02  5.2000E-02  5.2000E-02  5.2000E-02  5.2000E-02  6.5000E-02  6.5000E-02  6.5000E-02  6.5000E-02  6.5000E-02
       6.5000E-02  6.5000E-02  6.5000E-02  6.5000E-02  6.5000E-02  6.5000E-02  6.5000E-02  6.5000E-02  0.1300      0.1300    
       0.1300      0.1300      0.1300      0.1300      0.1300      0.1300      0.1300      0.1300      0.1300      6.5000E-02
       6.5000E-02  6.5000E-02  6.5000E-02  3.9000E-02  3.9000E-02   0.000       0.000       0.000       0.000    
  22    0.000       0.000       0.000       0.000       0.000       0.000       0.000       0.000       0.000       0.000    
        0.000       0.000       0.000       0.000       0.000       0.000       0.000       0.000       0.000       0.000    
        0.000       0.000       0.000       0.000       0.000       0.000       0.000       0.000       0.000       0.000    
        0.000       0.000      2.6000E-02  2.6000E-02  2.6000E-02  2.6000E-02  5.2000E-02  5.2000E-02  5.2000E-02  5.2000E-02
       5.2000E-02  5.2000E-02  5.2000E-02  5.2000E-02  5.2000E-02  6.5000E-02  6.5000E-02  6.5000E-02  6.5000E-02  6.5000E-02
       6.5000E-02  6.5000E-02  6.5000E-02  6.5000E-02  6.5000E-02  6.5000E-02  6.5000E-02  6.5000E-02  6.5000E-02  6.5000E-02
       6.5000E-02  0.1300      0.1300      0.1300      0.1300      0.1300      0.1300      0.1300      0.1300      6.5000E-02
       6.5000E-02  6.5000E-02  6.5000E-02  6.5000E-02   0.000       0.000       0.000       0.000       0.000    
  23    0.000       0.000       0.000       0.000       0.000       0.000       0.000       0.000       0.000       0.000    
        0.000       0.000       0.000       0.000       0.000       0.000       0.000       0.000       0.000       0.000    
        0.000       0.000       0.000       0.000       0.000       0.000       0.000       0.000       0.000       0.000    
        0.000      2.6000E-02  2.6000E-02  2.6000E-02  2.6000E-02  5.2000E-02  5.2000E-02  5.2000E-02  5.2000E-02  5.2000E-02
       5.2000E-02  5.2000E-02  5.2000E-02  5.2000E-02  5.2000E-02  6.5000E-02  6.5000E-02  0.1300      6.5000E-02  6.5000E-02
       6.5000E-02  6.5000E-02  6.5000E-02  6.5000E-02  6.5000E-02  6.5000E-02  6.5000E-02  6.5000E-02  6.5000E-02  6.5000E-02
       6.5000E-02  6.5000E-02  0.1300      0.1300      0.1300      0.1300      0.1300      0.1300      0.1300      6.5000E-02
       6.5000E-02   0.000       0.000       0.000       0.000       0.000       0.000       0.000       0.000    
  24    0.000       0.000       0.000       0.000       0.000       0.000       0.000       0.000       0.000       0.000    
        0.000       0.000       0.000       0.000       0.000       0.000       0.000       0.000       0.000       0.000    
        0.000       0.000       0.000       0.000       0.000       0.000       0.000       0.000      2.6000E-02  2.6000E-02
       2.6000E-02  2.6000E-02  2.6000E-02  2.6000E-02  2.6000E-02  5.2000E-02  5.2000E-02  5.2000E-02  5.2000E-02  5.2000E-02
       5.2000E-02  5.2000E-02  5.2000E-02  5.2000E-02  5.2000E-02  6.5000E-02  6.5000E-02  0.1300      0.1300      6.5000E-02
       6.5000E-02  6.5000E-02  6.5000E-02  6.5000E-02  6.5000E-02  6.5000E-02  6.5000E-02  6.5000E-02  6.5000E-02  6.5000E-02
       6.5000E-02  6.5000E-02  6.5000E-02  0.1300      0.1300      0.1300      0.1300      0.1300      0.1300      6.5000E-02
       6.5000E-02   0.000       0.000       0.000       0.000       0.000       0.000       0.000       0.000    
  25    0.000       0.000       0.000       0.000       0.000       0.000       0.000       0.000       0.000       0.000    
        0.000       0.000       0.000       0.000       0.000       0.000       0.000       0.000       0.000       0.000    
        0.000       0.000       0.000       0.000       0.000       0.000       0.000      2.6000E-02  2.6000E-02  2.6000E-02
       2.6000E-02  2.6000E-02  2.6000E-02  2.6000E-02  5.2000E-02  5.2000E-02  5.2000E-02  5.2000E-02  5.2000E-02  5.2000E-02
       5.2000E-02  5.2000E-02  5.2000E-02  5.2000E-02  6.5000E-02  6.5000E-02  6.5000E-02  0.1300      0.1300      6.5000E-02
       6.5000E-02  6.5000E-02  6.5000E-02  6.5000E-02  6.5000E-02  6.5000E-02  6.5000E-02  6.5000E-02  6.5000E-02  6.5000E-02
       6.5000E-02  6.5000E-02  6.5000E-02  6.5000E-02  6.5000E-02  0.1300      0.1300      0.1300      0.1300      6.5000E-02
       6.5000E-02   0.000       0.000       0.000       0.000       0.000       0.000       0.000       0.000    
  26    0.000       0.000       0.000       0.000       0.000       0.000       0.000       0.000       0.000       0.000    
        0.000       0.000       0.000       0.000       0.000       0.000       0.000       0.000       0.000       0.000    
        0.000       0.000       0.000       0.000       0.000      2.6000E-02  2.6000E-02  2.6000E-02  2.6000E-02  2.6000E-02
       2.6000E-02  2.6000E-02  2.6000E-02  5.2000E-02  5.2000E-02  5.2000E-02  5.2000E-02  5.2000E-02  5.2000E-02  5.2000E-02
       5.2000E-02  5.2000E-02  6.5000E-02  6.5000E-02  6.5000E-02  6.5000E-02  6.5000E-02  6.5000E-02  0.1300      0.1300    
       0.1300      6.5000E-02  6.5000E-02  6.5000E-02  6.5000E-02  6.5000E-02  6.5000E-02  6.5000E-02  6.5000E-02  6.5000E-02
       6.5000E-02  6.5000E-02  6.5000E-02  6.5000E-02  6.5000E-02  0.1300      0.1300      0.1300      0.1300      6.5000E-02
       6.5000E-02   0.000       0.000       0.000       0.000       0.000       0.000       0.000       0.000    
  27    0.000       0.000       0.000       0.000       0.000       0.000       0.000       0.000       0.000       0.000    
        0.000       0.000       0.000       0.000       0.000       0.000       0.000       0.000       0.000       0.000    
        0.000       0.000       0.000       0.000      2.6000E-02  2.6000E-02  2.6000E-02  2.6000E-02  2.6000E-02  2.6000E-02
       2.6000E-02  2.6000E-02  5.2000E-02  5.2000E-02  5.2000E-02  5.2000E-02  5.2000E-02  5.2000E-02  5.2000E-02  5.2000E-02
       5.2000E-02  6.5000E-02  6.5000E-02  6.5000E-02  6.5000E-02  6.5000E-02  6.5000E-02  6.5000E-02  6.5000E-02  0.1300    
       0.1300      6.5000E-02  6.5000E-02  6.5000E-02  6.5000E-02  6.5000E-02  6.5000E-02  6.5000E-02  6.5000E-02  6.5000E-02
       6.5000E-02  6.5000E-02  6.5000E-02  6.5000E-02  6.5000E-02  0.1300      0.1300      0.1300      0.1300      0.1300    
       6.5000E-02   0.000       0.000       0.000       0.000       0.000       0.000       0.000       0.000    
  28    0.000       0.000       0.000       0.000       0.000       0.000       0.000       0.000       0.000       0.000    
        0.000       0.000       0.000       0.000       0.000       0.000       0.000       0.000       0.000       0.000    
        0.000       0.000       0.000      2.6000E-02  2.6000E-02  2.6000E-02  2.6000E-02  2.6000E-02  2.6000E-02  2.6000E-02
       2.6000E-02  5.2000E-02  5.2000E-02  5.2000E-02  5.2000E-02  5.2000E-02  5.2000E-02  5.2000E-02  6.5000E-02  6.5000E-02
       6.5000E-02  6.5000E-02  6.5000E-02  6.5000E-02  6.5000E-02  6.5000E-02  6.5000E-02  6.5000E-02  6.5000E-02  6.5000E-02
       0.1300      0.1300      6.5000E-02  6.5000E-02  6.5000E-02  6.5000E-02  6.5000E-02  6.5000E-02  6.5000E-02  6.5000E-02
       6.5000E-02  6.5000E-02  6.5000E-02  6.5000E-02  6.5000E-02  6.5000E-02  0.1300      0.1300      0.3900      0.1300    
       6.5000E-02  6.5000E-02   0.000       0.000       0.000       0.000       0.000       0.000       0.000    
  29    0.000       0.000       0.000       0.000       0.000       0.000       0.000       0.000       0.000       0.000    
        0.000       0.000       0.000       0.000       0.000       0.000       0.000       0.000       0.000       0.000    
        0.000      2.6000E-02  2.6000E-02  2.6000E-02  2.6000E-02  2.6000E-02  2.6000E-02  2.6000E-02  2.6000E-02  5.2000E-02
       5.2000E-02  5.2000E-02  5.2000E-02  5.2000E-02  5.2000E-02  5.2000E-02  5.2000E-02  6.5000E-02  6.5000E-02  6.5000E-02
       6.5000E-02  6.5000E-02  6.5000E-02  6.5000E-02  6.5000E-02  6.5000E-02  6.5000E-02  6.5000E-02  6.5000E-02  6.5000E-02
       0.1300      0.1300      6.5000E-02  6.5000E-02  6.5000E-02  6.5000E-02  6.5000E-02  6.5000E-02  6.5000E-02  6.5000E-02
       6.5000E-02  6.5000E-02  6.5000E-02  6.5000E-02  6.5000E-02  6.5000E-02  0.1300      0.1300      0.3900      0.1300    
       6.5000E-02  6.5000E-02   0.000       0.000       0.000       0.000       0.000       0.000       0.000    
  30    0.000       0.000       0.000       0.000       0.000       0.000       0.000       0.000       0.000       0.000    
        0.000       0.000       0.000       0.000       0.000       0.000       0.000       0.000       0.000      2.6000E-02
       2.6000E-02  2.6000E-02  2.6000E-02  2.6000E-02  2.6000E-02  2.6000E-02  2.6000E-02  5.2000E-02  5.2000E-02  5.2000E-02
       5.2000E-02  5.2000E-02  5.2000E-02  5.2000E-02  5.2000E-02  5.2000E-02  5.2000E-02  6.5000E-02  6.5000E-02  6.5000E-02
       6.5000E-02  6.5000E-02  6.5000E-02  6.5000E-02  6.5000E-02  6.5000E-02  6.5000E-02  6.5000E-02  6.5000E-02  6.5000E-02
       0.1300      0.1300      6.5000E-02  6.5000E-02  6.5000E-02  6.5000E-02  6.5000E-02  6.5000E-02  6.5000E-02  6.5000E-02
       6.5000E-02  6.5000E-02  6.5000E-02  6.5000E-02  6.5000E-02  6.5000E-02  0.1300      0.1300      0.3900      0.1300    
       6.5000E-02  6.5000E-02   0.000       0.000       0.000       0.000       0.000       0.000       0.000    
  31    0.000       0.000       0.000       0.000       0.000       0.000       0.000       0.000       0.000       0.000    
        0.000       0.000       0.000       0.000       0.000       0.000       0.000       0.000      2.6000E-02  2.6000E-02
       2.6000E-02  2.6000E-02  2.6000E-02  5.2000E-02  5.2000E-02  5.2000E-02  5.2000E-02  5.2000E-02  5.2000E-02  5.2000E-02
       5.2000E-02  5.2000E-02  5.2000E-02  5.2000E-02  5.2000E-02  5.2000E-02  6.5000E-02  6.5000E-02  6.5000E-02  6.5000E-02
       6.5000E-02  6.5000E-02  6.5000E-02  0.1300      6.5000E-02  6.5000E-02  6.5000E-02  6.5000E-02  6.5000E-02  6.5000E-02
       0.1300      0.1300      6.5000E-02  6.5000E-02  6.5000E-02  6.5000E-02  6.5000E-02  6.5000E-02  6.5000E-02  6.5000E-02
       6.5000E-02  6.5000E-02  6.5000E-02  6.5000E-02  6.5000E-02  6.5000E-02  0.1300      0.1300      0.3900      0.3900    
       6.5000E-02  6.5000E-02   0.000       0.000       0.000       0.000       0.000       0.000       0.000    
  32    0.000       0.000       0.000       0.000       0.000       0.000       0.000       0.000       0.000       0.000    
        0.000       0.000       0.000       0.000       0.000       0.000      2.6000E-02  2.6000E-02  2.6000E-02  2.6000E-02
       2.6000E-02  2.6000E-02  5.2000E-02  5.2000E-02  5.2000E-02  5.2000E-02  5.2000E-02  5.2000E-02  5.2000E-02  5.2000E-02
       5.2000E-02  5.2000E-02  5.2000E-02  5.2000E-02  5.2000E-02  5.2000E-02  6.5000E-02  6.5000E-02  0.3900      0.3900    
       0.3900      0.3900      0.3900      0.3900      6.5000E-02  6.5000E-02  6.5000E-02  6.5000E-02  6.5000E-02  6.5000E-02
       0.1300      0.1300      0.1300      6.5000E-02  6.5000E-02  6.5000E-02  6.5000E-02  6.5000E-02  6.5000E-02  6.5000E-02
       6.5000E-02  6.5000E-02  6.5000E-02  6.5000E-02  6.5000E-02  6.5000E-02  6.5000E-02  0.1300      0.1300      0.3900    
       0.1300      6.5000E-02   0.000       0.000       0.000       0.000       0.000       0.000       0.000    
  33    0.000       0.000       0.000       0.000       0.000       0.000       0.000       0.000       0.000       0.000    
        0.000       0.000       0.000       0.000       0.000      2.6000E-02  2.6000E-02  2.6000E-02  2.6000E-02  2.6000E-02
       2.6000E-02  2.6000E-02  5.2000E-02  5.2000E-02  5.2000E-02  5.2000E-02  5.2000E-02  5.2000E-02  5.2000E-02  5.2000E-02
       5.2000E-02  5.2000E-02  5.2000E-02  5.2000E-02  6.5000E-02  6.5000E-02  6.5000E-02  0.3900      0.3900      0.3900    
       0.3900      0.3900      0.3900      0.3900      0.3900      6.5000E-02  6.5000E-02  6.5000E-02  6.5000E-02  6.5000E-02
       0.1300      0.1300      0.1300      0.1300      0.1300      0.1300      6.5000E-02  6.5000E-02  6.5000E-02  6.5000E-02
       6.5000E-02  6.5000E-02  6.5000E-02  6.5000E-02  6.5000E-02  6.5000E-02  6.5000E-02  0.1300      0.1300      0.3900    
       0.1300      6.5000E-02  6.5000E-02   0.000       0.000       0.000       0.000       0.000       0.000    
  34    0.000       0.000       0.000       0.000       0.000       0.000       0.000       0.000       0.000       0.000    
        0.000       0.000       0.000       0.000      2.6000E-02  2.6000E-02  2.6000E-02  2.6000E-02  2.6000E-02  2.6000E-02
       2.6000E-02  2.6000E-02  5.2000E-02  5.2000E-02  5.2000E-02  5.2000E-02  5.2000E-02  0.1300      5.2000E-02  5.2000E-02
       5.2000E-02  5.2000E-02  5.2000E-02  5.2000E-02  6.5000E-02  6.5000E-02  0.3900      0.3900      0.3900      0.3900    
       0.3900      0.1300      0.1300      0.3900      0.3900      0.3900      0.3900      0.3900      0.3900      0.1300    
       0.1300      0.1300      0.3900      0.3900      0.3900      0.1300      6.5000E-02  6.5000E-02  6.5000E-02  6.5000E-02
       6.5000E-02  6.5000E-02  6.5000E-02  6.5000E-02  6.5000E-02  6.5000E-02  6.5000E-02  0.1300      0.1300      0.1300    
       6.5000E-02  5.2000E-02  5.2000E-02   0.000       0.000       0.000       0.000       0.000       0.000    
  35    0.000       0.000       0.000       0.000       0.000       0.000       0.000       0.000       0.000       0.000    
        0.000       0.000       0.000      2.6000E-02  2.6000E-02  2.6000E-02  2.6000E-02  2.6000E-02  5.2000E-02  5.2000E-02
       5.2000E-02  5.2000E-02  5.2000E-02  5.2000E-02  0.1300      0.1300      0.1300      0.1300      0.1300      0.1300    
       5.2000E-02  5.2000E-02  0.1300      0.1300      0.3900      0.3900      0.3900      0.3900      0.1300      0.1300    
       0.1300      0.1300      0.1300      0.1300      0.3900      0.3900      0.3900      0.3900      0.3900      0.3900    
       0.3900      0.3900      0.3900      0.3900      0.3900      0.3900      6.5000E-02  6.5000E-02  6.5000E-02  6.5000E-02
       6.5000E-02  6.5000E-02  6.5000E-02  6.5000E-02  6.5000E-02  6.5000E-02  6.5000E-02  0.1300      0.1300      6.5000E-02
       6.5000E-02  5.2000E-02  2.6000E-02  2.6000E-02   0.000       0.000       0.000       0.000       0.000    
  36    0.000       0.000       0.000       0.000       0.000       0.000       0.000       0.000       0.000       0.000    
        0.000       0.000       0.000      2.6000E-02  2.6000E-02  2.6000E-02  2.6000E-02  5.2000E-02  5.2000E-02  5.2000E-02
       5.2000E-02  5.2000E-02  5.2000E-02  5.2000E-02  0.1300      0.1300      0.1300      0.1300      0.3900      0.3900    
       0.3900      0.3900      0.3900      0.3900      0.3900      0.3900      0.3900      0.3900      0.1300      0.1300    
       0.1300      0.1300      0.1300      0.1300      0.3900      0.3900      0.3900      0.3900      0.3900      0.3900    
       0.3900      0.3900      0.3900      0.3900      0.3900      0.3900      0.3900      0.1300      0.1300      6.5000E-02
       6.5000E-02  6.5000E-02  0.1300      0.1300      6.5000E-02  6.5000E-02  6.5000E-02  0.1300      0.1300      6.5000E-02
       6.5000E-02  6.5000E-02  2.6000E-02  2.6000E-02  2.6000E-02   0.000       0.000       0.000       0.000    
  37    0.000       0.000       0.000       0.000       0.000       0.000       0.000       0.000       0.000       0.000    
        0.000       0.000      2.6000E-02  2.6000E-02  2.6000E-02  2.6000E-02  5.2000E-02  5.2000E-02  5.2000E-02  5.2000E-02
       5.2000E-02  5.2000E-02  5.2000E-02  0.1300      0.3900      0.3900      0.3900      0.3900      0.3900      0.3900    
       0.3900      0.3900      0.3900      0.3900      0.3900      0.3900      0.3900      0.3900      6.5000E-02  6.5000E-02
       6.5000E-02  6.5000E-02  0.1300      0.3900      0.3900      0.3900      0.3900      0.3900      0.3900      0.3900    
       0.3900      0.3900      0.3900      0.3900      0.3900      0.3900      0.3900      0.3900      0.3900      0.3900    
       0.3900      0.3900      0.1300      0.1300      0.1300      0.1300      0.1300      0.1300      0.1300      0.1300    
       6.5000E-02  6.5000E-02  5.2000E-02  2.6000E-02  2.6000E-02   0.000       0.000       0.000       0.000    
  38    0.000       0.000       0.000       0.000       0.000       0.000       0.000       0.000       0.000       0.000    
       5.2000E-02  5.2000E-02  2.6000E-02  5.2000E-02  5.2000E-02  5.2000E-02  5.2000E-02  5.2000E-02  0.1300      0.1300    
       0.1300      0.1300      0.1300      0.1300      0.1300      0.3900      0.3900      0.3900      0.1300      0.1300    
       0.3900      0.3900      0.3900      0.3900      0.3900      0.3900      0.3900      0.3900      6.5000E-02  6.5000E-02
       6.5000E-02  6.5000E-02  0.1300      0.3900      0.3900      0.3900      6.5000E-02  0.1300      0.1300      0.1300    
       0.1300      0.1300      0.3900      0.3900      0.3900      0.3900      0.3900      0.3900      0.3900      0.3900    
       0.3900      0.3900      0.3900      0.3900      0.3900      0.3900      0.3900      0.3900      0.3900      0.1300    
       0.1300      6.5000E-02  5.2000E-02  2.6000E-02  2.6000E-02  5.2000E-02   0.000       0.000       0.000    
  39    0.000       0.000       0.000       0.000       0.000       0.000       0.000      2.6000E-02  2.6000E-02  5.2000E-02
       5.2000E-02  5.2000E-02  5.2000E-02  5.2000E-02  0.1300      0.1300      0.1300      0.1300      0.1300      0.1300    
       0.1300      0.1300      0.1300      6.5000E-02  6.5000E-02  6.5000E-02  6.5000E-02  6.5000E-02  0.1300      0.3900    
       0.3900      0.3900      0.3900      0.3900      0.3900      0.3900      0.3900      0.3900      6.5000E-02  6.5000E-02
       6.5000E-02  6.5000E-02  6.5000E-02  0.3900      0.3900      6.5000E-02  6.5000E-02  6.5000E-02  0.1300      0.1300    
       0.1300      0.1300      0.1300      0.1300      0.1300      0.1300      0.1300      0.1300      0.1300      0.3900    
       0.3900      0.3900      0.3900      0.3900      0.3900      0.3900      0.3900      0.3900      0.3900      0.3900    
       0.3900      0.3900      0.1300      5.2000E-02  5.2000E-02   1.170       0.000       0.000       0.000    
  40    0.000       0.000       0.000       0.000       0.000       0.000      2.6000E-02  2.6000E-02  2.6000E-02  5.2000E-02
       5.2000E-02  5.2000E-02  0.1300      0.1300      0.1300      0.1300      0.1300      0.1300      5.2000E-02  5.2000E-02
       5.2000E-02  5.2000E-02  6.5000E-02  6.5000E-02  6.5000E-02  6.5000E-02  6.5000E-02  6.5000E-02  0.3900      0.3900    
       0.3900      0.3900      0.3900      0.3900      0.3900      0.3900      0.3900      0.3900      6.5000E-02  6.5000E-02
       6.5000E-02  6.5000E-02  6.5000E-02  0.3900      0.3900      6.5000E-02  6.5000E-02  6.5000E-02  6.5000E-02  0.1300    
       0.1300      0.1300      0.1300      0.1300      0.1300      0.1300      6.5000E-02  6.5000E-02  0.1300      0.3900    
       0.3900      0.1300      0.1300      0.1300      0.1300      0.3900      0.3900      0.3900      0.3900      0.3900    
       0.3900      0.3900      0.3900      0.3900      0.3900       1.170       0.000       0.000       0.000    
  41    0.000       0.000       0.000       0.000       0.000      2.6000E-02  2.6000E-02  2.6000E-02  5.2000E-02  5.2000E-02
       5.2000E-02  5.2000E-02  0.1300      0.1300      5.2000E-02  5.2000E-02  5.2000E-02  5.2000E-02  5.2000E-02  5.2000E-02
       5.2000E-02  6.5000E-02  6.5000E-02  6.5000E-02  6.5000E-02  6.5000E-02  6.5000E-02  6.5000E-02  0.3900      0.3900    
       0.1300      0.1300      0.1300      0.3900      0.3900      0.3900      0.3900      0.3900      6.5000E-02  6.5000E-02
       6.5000E-02  6.5000E-02  6.5000E-02  0.3900      0.3900      0.3900      6.5000E-02  6.5000E-02  6.5000E-02  0.1300    
       0.1300      0.1300      5.2000E-02  5.2000E-02  5.2000E-02  5.2000E-02  6.5000E-02  6.5000E-02  6.5000E-02  0.3900    
       0.3900      0.1300      6.5000E-02  0.1300      0.1300      0.1300      6.5000E-02  6.5000E-02  0.3900      0.3900    
       0.3900      0.3900      0.3900      0.3900      0.3900       0.000       0.000       0.000       0.000    
  42    0.000       0.000       0.000       0.000       0.000      2.6000E-02  2.6000E-02  2.6000E-02  5.2000E-02  5.2000E-02
       5.2000E-02  5.2000E-02  5.2000E-02  5.2000E-02  5.2000E-02  5.2000E-02  5.2000E-02  5.2000E-02  5.2000E-02  6.5000E-02
       6.5000E-02  6.5000E-02  6.5000E-02  0.3900      0.3900      0.3900      0.3900      0.3900      0.3900      0.1300    
       0.1300      0.1300      0.1300      0.1300      0.3900      0.3900      0.3900      0.3900      6.5000E-02  6.5000E-02
       6.5000E-02  6.5000E-02  6.5000E-02  0.1300      0.3900      0.3900      6.5000E-02  6.5000E-02  6.5000E-02  6.5000E-02
       5.2000E-02  5.2000E-02  5.2000E-02  5.2000E-02  5.2000E-02  5.2000E-02  5.2000E-02  6.5000E-02  6.5000E-02  0.3900    
       0.3900      0.1300      6.5000E-02  6.5000E-02  6.5000E-02  6.5000E-02  6.5000E-02  6.5000E-02  6.5000E-02  0.1300    
       0.3900      0.3900      0.3900      0.3900      0.3900       0.000       0.000       0.000       0.000    
  43    0.000       0.000       0.000       0.000       0.000      2.6000E-02  2.6000E-02  2.6000E-02  5.2000E-02  5.2000E-02
       5.2000E-02  5.2000E-02  5.2000E-02  5.2000E-02  5.2000E-02  5.2000E-02  5.2000E-02  5.2000E-02  5.2000E-02  6.5000E-02
       6.5000E-02  6.5000E-02  0.3900      0.3900      0.3900      0.1300      0.1300      0.1300      0.1300      0.1300    
       0.1300      0.1300      0.1300      0.1300      0.3900      0.3900      0.3900      6.5000E-02  6.5000E-02  6.5000E-02
       6.5000E-02  6.5000E-02  6.5000E-02  0.1300      0.3900      0.3900      6.5000E-02  6.5000E-02  6.5000E-02  6.5000E-02
       5.2000E-02  5.2000E-02  5.2000E-02  5.2000E-02  5.2000E-02  5.2000E-02  5.2000E-02  6.5000E-02  6.5000E-02  0.3900    
       0.3900      6.5000E-02  6.5000E-02  6.5000E-02  6.5000E-02  6.5000E-02  6.5000E-02  6.5000E-02  6.5000E-02  0.1300    
       0.3900      0.3900      0.3900      0.3900      0.1300       0.000       0.000       0.000       0.000    
  44    0.000       0.000       0.000       0.000       0.000      2.6000E-02  2.6000E-02  2.6000E-02  2.6000E-02  5.2000E-02
       5.2000E-02  5.2000E-02  5.2000E-02  5.2000E-02  5.2000E-02  6.5000E-02  6.5000E-02  6.5000E-02  6.5000E-02  0.1300    
       0.1300      0.3900      0.3900      0.1300      0.1300      0.1300      0.1300      0.1300      0.1300      0.1300    
       0.1300      0.1300      0.1300      0.1300      0.3900      0.3900      0.3900      6.5000E-02  6.5000E-02  6.5000E-02
       6.5000E-02  6.5000E-02  5.2000E-02  5.2000E-02  0.3900      0.3900      6.5000E-02  6.5000E-02  6.5000E-02  6.5000E-02
       6.5000E-02  5.2000E-02  2.6000E-02  2.6000E-02  2.6000E-02  5.2000E-02  5.2000E-02  6.5000E-02  6.5000E-02  0.1300    
       0.3900      6.5000E-02  6.5000E-02  6.5000E-02  6.5000E-02  6.5000E-02  6.5000E-02  6.5000E-02  6.5000E-02  0.1300    
       0.1300      0.3900      0.3900      0.1300      0.1300       0.000       0.000       0.000       0.000    
  45    0.000       0.000       0.000      2.6000E-02  2.6000E-02  2.6000E-02  2.6000E-02  2.6000E-02  5.2000E-02  5.2000E-02
       5.2000E-02  5.2000E-02  5.2000E-02  5.2000E-02  0.1300      0.1300      0.1300      0.1300      0.1300      0.3900    
       0.3900      0.3900      0.1300      0.1300      0.1300      0.1300      0.1300      0.1300      0.1300      0.1300    
       0.1300      0.1300      0.1300      0.1300      0.3900      0.3900      0.3900      0.1300      5.2000E-02  5.2000E-02
       5.2000E-02  5.2000E-02  5.2000E-02  5.2000E-02  0.3900      0.3900      6.5000E-02  6.5000E-02  2.6000E-02  2.6000E-02
       2.6000E-02  2.6000E-02  2.6000E-02  2.6000E-02  2.6000E-02  5.2000E-02  5.2000E-02  6.5000E-02  6.5000E-02  0.1300    
       0.3900      6.5000E-02  6.5000E-02  6.5000E-02  6.5000E-02  6.5000E-02  6.5000E-02  6.5000E-02  6.5000E-02  0.1300    
       0.1300      0.3900      0.3900      6.5000E-02  5.2000E-02   0.000       0.000       0.000       0.000    
  46    0.000       0.000       0.000      2.6000E-02  2.6000E-02  2.6000E-02  2.6000E-02  2.6000E-02  5.2000E-02  5.2000E-02
       5.2000E-02  0.1300      0.1300      0.1300      0.1300      0.1300      0.3900      0.3900      0.3900      0.3900    
       0.3900      0.1300      0.1300      0.1300      0.1300      0.1300      0.1300      0.1300      0.1300      0.1300    
       0.1300      0.1300      0.1300      0.1300      0.3900      0.3900      0.3900      6.5000E-02  5.2000E-02  5.2000E-02
       5.2000E-02  5.2000E-02  5.2000E-02  5.2000E-02  0.3900      0.3900      6.5000E-02  6.5000E-02  2.6000E-02  2.6000E-02
       2.6000E-02  2.6000E-02  2.6000E-02  2.6000E-02  2.6000E-02  5.2000E-02  5.2000E-02  6.5000E-02  6.5000E-02  0.1300    
       0.1300      6.5000E-02  6.5000E-02  6.5000E-02  6.5000E-02  6.5000E-02  6.5000E-02  6.5000E-02  6.5000E-02  0.1300    
       0.1300      0.3900      0.1300      6.5000E-02  6.5000E-02   0.000       0.000       0.000       0.000    
  47    0.000       0.000       0.000      2.6000E-02  2.6000E-02  2.6000E-02  2.6000E-02  5.2000E-02  5.2000E-02  5.2000E-02
       5.2000E-02  0.1300      0.1300      0.1300      0.3900      0.3900      0.3900      0.1300      0.1300      0.1300    
       0.1300      0.1300      0.1300      0.1300      0.1300      0.1300      0.1300      0.1300      0.1300      6.5000E-02
       0.1300      0.1300      0.1300      0.1300      0.3900      0.3900      0.3900      6.5000E-02  5.2000E-02  5.2000E-02
       5.2000E-02  5.2000E-02  5.2000E-02  5.2000E-02  0.3900      0.3900      6.5000E-02  6.5000E-02  2.6000E-02  2.6000E-02
       2.6000E-02  2.6000E-02  2.6000E-02  2.6000E-02  2.6000E-02  5.2000E-02  5.2000E-02  5.2000E-02  6.5000E-02  6.5000E-02
       0.1300      6.5000E-02  6.5000E-02  6.5000E-02  6.5000E-02  6.5000E-02  6.5000E-02  6.5000E-02  6.5000E-02  0.1300    
       0.1300      0.3900      0.1300      6.5000E-02  6.5000E-02   0.000       0.000       0.000       0.000    
  48    0.000       0.000       0.000      2.6000E-02  2.6000E-02  2.6000E-02  2.6000E-02  5.2000E-02  5.2000E-02  5.2000E-02
       5.2000E-02  0.1300      0.3900      0.3900      0.3900      0.1300      0.1300      0.1300      0.1300      0.1300    
       0.1300      0.1300      0.1300      0.1300      6.5000E-02  6.5000E-02  6.5000E-02  6.5000E-02  6.5000E-02  6.5000E-02
       0.1300      0.1300      0.1300      0.1300      0.3900      0.3900      0.3900      0.3900      5.2000E-02  5.2000E-02
       5.2000E-02  5.2000E-02  5.2000E-02  5.2000E-02  0.3900      0.3900      6.5000E-02  6.5000E-02  6.5000E-02  2.6000E-02
       2.6000E-02  2.6000E-02  2.6000E-02  2.6000E-02  2.6000E-02  2.6000E-02  5.2000E-02  5.2000E-02  6.5000E-02  6.5000E-02
       0.1300      0.1300      6.5000E-02  6.5000E-02  6.5000E-02  6.5000E-02  6.5000E-02  6.5000E-02  6.5000E-02  0.1300    
       0.3900      0.3900      0.1300      6.5000E-02  6.5000E-02  6.5000E-02   0.000       0.000       0.000    
  49    0.000       0.000       0.000      2.6000E-02  2.6000E-02  2.6000E-02  2.6000E-02  5.2000E-02  5.2000E-02  5.2000E-02
       0.1300      0.3900      0.3900      0.1300      0.1300      0.1300      0.1300      0.1300      0.1300      6.5000E-02
       6.5000E-02  6.5000E-02  6.5000E-02  6.5000E-02  6.5000E-02  6.5000E-02  6.5000E-02  6.5000E-02  6.5000E-02  6.5000E-02
       0.1300      0.1300      0.1300      0.1300      0.3900      0.3900      0.3900      0.3900      0.3900      5.2000E-02
       5.2000E-02  5.2000E-02  5.2000E-02  5.2000E-02  5.2000E-02  0.3900      0.3900      0.1300      6.5000E-02  2.6000E-02
       2.6000E-02  2.6000E-02  2.6000E-02  2.6000E-02  2.6000E-02  2.6000E-02  5.2000E-02  5.2000E-02  6.5000E-02  6.5000E-02
       0.1300      0.1300      6.5000E-02  6.5000E-02  6.5000E-02  6.5000E-02  6.5000E-02  6.5000E-02  6.5000E-02  0.1300    
       0.3900      0.3900      0.1300      6.5000E-02  6.5000E-02  6.5000E-02   0.000       0.000       0.000    
  50    0.000       0.000       0.000      2.6000E-02  2.6000E-02  2.6000E-02  5.2000E-02  5.2000E-02  5.2000E-02  5.2000E-02
       0.3900      0.3900      0.3900      0.3900      0.1300      6.5000E-02  6.5000E-02  6.5000E-02  6.5000E-02  6.5000E-02
       6.5000E-02  6.5000E-02  6.5000E-02  6.5000E-02  6.5000E-02  6.5000E-02  6.5000E-02  6.5000E-02  6.5000E-02  6.5000E-02
       6.5000E-02  0.1300      0.1300      0.1300      0.1300      0.3900      0.3900      0.3900      0.3900      0.3900    
       5.2000E-02  5.2000E-02  5.2000E-02  5.2000E-02  5.2000E-02  5.2000E-02  0.3900      0.3900      0.1300      2.6000E-02
       2.6000E-02  2.6000E-02  2.6000E-02  2.6000E-02  2.6000E-02  2.6000E-02  5.2000E-02  5.2000E-02  6.5000E-02  6.5000E-02
       0.1300      0.1300      6.5000E-02  6.5000E-02  6.5000E-02  6.5000E-02  6.5000E-02  6.5000E-02  6.5000E-02  0.1300    
       0.3900      0.3900      0.1300      0.1300      6.5000E-02  6.5000E-02   0.000       0.000       0.000    
  51    0.000       0.000       0.000      2.6000E-02  2.6000E-02  5.2000E-02  5.2000E-02  5.2000E-02  5.2000E-02  0.3900    
       0.3900      0.3900      0.3900      0.1300      0.1300      5.2000E-02  5.2000E-02  6.5000E-02  6.5000E-02  6.5000E-02
       6.5000E-02  6.5000E-02  6.5000E-02  6.5000E-02  6.5000E-02  6.5000E-02  6.5000E-02  6.5000E-02  6.5000E-02  6.5000E-02
       6.5000E-02  0.1300      0.1300      0.1300      0.1300      0.3900      0.3900      0.3900      0.3900      0.3900    
       5.2000E-02  5.2000E-02  5.2000E-02  5.2000E-02  5.2000E-02  5.2000E-02  0.3900      0.3900      0.3900      2.6000E-02
       2.6000E-02  2.6000E-02  2.6000E-02  2.6000E-02  2.6000E-02  2.6000E-02  5.2000E-02  5.2000E-02  6.5000E-02  6.5000E-02
       0.1300      0.1300      0.1300      6.5000E-02  6.5000E-02  6.5000E-02  6.5000E-02  6.5000E-02  6.5000E-02  0.1300    
       0.3900      0.3900      0.1300      0.1300      6.5000E-02  6.5000E-02   0.000       0.000       0.000    
  52    0.000       0.000      2.6000E-02  2.6000E-02  2.6000E-02  5.2000E-02  5.2000E-02  5.2000E-02  5.2000E-02  0.3900    
       0.3900      0.3900      0.1300      5.2000E-02  5.2000E-02  5.2000E-02  5.2000E-02  5.2000E-02  5.2000E-02  6.5000E-02
       6.5000E-02  6.5000E-02  6.5000E-02  6.5000E-02  6.5000E-02  6.5000E-02  6.5000E-02  6.5000E-02  6.5000E-02  6.5000E-02
       6.5000E-02  0.1300      0.1300      0.1300      0.1300      0.3900      0.3900      0.3900      0.3900      0.3900    
       5.2000E-02  5.2000E-02  5.2000E-02  5.2000E-02  5.2000E-02  5.2000E-02  5.2000E-02  0.3900      0.3900      2.6000E-02
       2.6000E-02  2.6000E-02  2.6000E-02  2.6000E-02  2.6000E-02  2.6000E-02  5.2000E-02  5.2000E-02  5.2000E-02  6.5000E-02
       0.1300      0.1300      0.1300      6.5000E-02  6.5000E-02  6.5000E-02  6.5000E-02  6.5000E-02  6.5000E-02  0.1300    
       0.3900      0.3900      0.3900      0.1300      6.5000E-02  6.5000E-02   0.000       0.000       0.000    
  53    0.000       0.000      2.6000E-02  2.6000E-02  2.6000E-02  5.2000E-02  5.2000E-02  5.2000E-02  0.3900      0.3900    
       0.3900      0.1300      5.2000E-02  5.2000E-02  5.2000E-02  5.2000E-02  5.2000E-02  5.2000E-02  5.2000E-02  5.2000E-02
       5.2000E-02  6.5000E-02  6.5000E-02  6.5000E-02  6.5000E-02  6.5000E-02  6.5000E-02  6.5000E-02  6.5000E-02  6.5000E-02
       6.5000E-02  0.1300      0.1300      0.1300      0.1300      0.3900      0.3900      0.3900      0.3900      5.2000E-02
       5.2000E-02  5.2000E-02  5.2000E-02  5.2000E-02  5.2000E-02  5.2000E-02  5.2000E-02  0.3900      0.1300      0.3900    
       2.6000E-02  2.6000E-02  2.6000E-02  2.6000E-02  2.6000E-02  2.6000E-02  2.6000E-02  5.2000E-02  5.2000E-02  6.5000E-02
       0.1300      0.1300      0.1300      6.5000E-02  6.5000E-02  6.5000E-02  6.5000E-02  6.5000E-02  6.5000E-02  0.1300    
       0.1300      0.3900      0.3900      0.1300      6.5000E-02  6.5000E-02  6.5000E-02   0.000       0.000    
  54    0.000       0.000      2.6000E-02  2.6000E-02  2.6000E-02  5.2000E-02  5.2000E-02  5.2000E-02  0.3900      0.3900    
       0.3900      5.2000E-02  5.2000E-02  5.2000E-02  5.2000E-02  5.2000E-02  5.2000E-02  5.2000E-02  5.2000E-02  5.2000E-02
       5.2000E-02  6.5000E-02  6.5000E-02  6.5000E-02  6.5000E-02  6.5000E-02  6.5000E-02  6.5000E-02  6.5000E-02  6.5000E-02
       6.5000E-02  0.1300      0.1300      0.1300      0.1300      0.3900      0.3900      0.3900      0.3900      6.5000E-02
       5.2000E-02  5.2000E-02  5.2000E-02  2.6000E-02  2.6000E-02  2.6000E-02  5.2000E-02  0.1300      0.1300      0.1300    
       2.6000E-02  2.6000E-02  2.6000E-02  2.6000E-02  2.6000E-02  2.6000E-02  2.6000E-02  5.2000E-02  5.2000E-02  6.5000E-02
       0.1300      0.1300      0.1300      6.5000E-02  6.5000E-02  6.5000E-02  6.5000E-02  6.5000E-02  6.5000E-02  0.1300    
       0.1300      0.1300      0.1300      0.1300      6.5000E-02  6.5000E-02  6.5000E-02   0.000       0.000    
  55    0.000      2.6000E-02  2.6000E-02  2.6000E-02  5.2000E-02  5.2000E-02  5.2000E-02  0.1300      0.1300      0.1300    
       0.1300      5.2000E-02  5.2000E-02  5.2000E-02  5.2000E-02  5.2000E-02  5.2000E-02  5.2000E-02  5.2000E-02  5.2000E-02
       5.2000E-02  5.2000E-02  6.5000E-02  6.5000E-02  6.5000E-02  6.5000E-02  6.5000E-02  6.5000E-02  6.5000E-02  6.5000E-02
       6.5000E-02  6.5000E-02  0.1300      0.1300      0.1300      0.3900      0.3900      0.3900      0.3900      6.5000E-02
       5.2000E-02  2.6000E-02  2.6000E-02  2.6000E-02  2.6000E-02  2.6000E-02  5.2000E-02  0.1300      0.1300      0.1300    
       2.6000E-02  2.6000E-02  2.6000E-02  2.6000E-02  2.6000E-02  2.6000E-02  2.6000E-02  5.2000E-02  5.2000E-02  6.5000E-02
       0.1300      0.1300      0.1300      6.5000E-02  6.5000E-02  6.5000E-02  6.5000E-02  6.5000E-02  6.5000E-02  0.1300    
       0.1300      0.1300      0.1300      0.1300      0.1300      6.5000E-02  6.5000E-02   0.000       0.000    
  56    0.000      2.6000E-02  2.6000E-02  5.2000E-02  5.2000E-02  5.2000E-02  0.1300      0.1300      0.1300      0.1300    
       0.1300      5.2000E-02  5.2000E-02  5.2000E-02  5.2000E-02  5.2000E-02  5.2000E-02  5.2000E-02  5.2000E-02  5.2000E-02
       5.2000E-02  5.2000E-02  5.2000E-02  6.5000E-02  6.5000E-02  6.5000E-02  6.5000E-02  6.5000E-02  6.5000E-02  6.5000E-02
       6.5000E-02  6.5000E-02  0.1300      0.1300      0.1300      0.3900      0.3900      0.3900      0.3900      6.5000E-02
       5.2000E-02  2.6000E-02  2.6000E-02  2.6000E-02  2.6000E-02  2.6000E-02  5.2000E-02  0.1300      0.1300      0.1300    
       2.6000E-02  2.6000E-02  2.6000E-02  2.6000E-02  2.6000E-02  2.6000E-02  2.6000E-02  5.2000E-02  5.2000E-02  6.5000E-02
       0.1300      0.1300      0.1300      6.5000E-02  6.5000E-02  5.2000E-02  5.2000E-02  5.2000E-02  6.5000E-02  6.5000E-02
       0.1300      0.1300      0.1300      0.1300      0.1300      6.5000E-02  6.5000E-02   0.000       0.000    
  57   2.6000E-02  2.6000E-02  5.2000E-02  5.2000E-02  5.2000E-02  0.1300      0.1300      0.1300      0.1300      5.2000E-02
       5.2000E-02  5.2000E-02  5.2000E-02  5.2000E-02  5.2000E-02  5.2000E-02  5.2000E-02  5.2000E-02  5.2000E-02  5.2000E-02
       5.2000E-02  5.2000E-02  5.2000E-02  5.2000E-02  5.2000E-02  5.2000E-02  6.5000E-02  6.5000E-02  6.5000E-02  6.5000E-02
       6.5000E-02  6.5000E-02  0.1300      0.1300      0.1300      0.3900      0.3900      0.3900      6.5000E-02  6.5000E-02
       5.2000E-02  2.6000E-02  2.6000E-02  2.6000E-02  2.6000E-02  2.6000E-02  5.2000E-02  0.1300      0.1300      0.1300    
       2.6000E-02  2.6000E-02  2.6000E-02  2.6000E-02  2.6000E-02  2.6000E-02  2.6000E-02  5.2000E-02  5.2000E-02  5.2000E-02
       6.5000E-02  0.1300      0.1300      6.5000E-02  6.5000E-02  5.2000E-02  5.2000E-02  5.2000E-02  6.5000E-02  6.5000E-02
       0.1300      0.1300      6.5000E-02  6.5000E-02  6.5000E-02  6.5000E-02  6.5000E-02   0.000       0.000    
  58   2.6000E-02  2.6000E-02  5.2000E-02  5.2000E-02  5.2000E-02  0.1300      5.2000E-02  5.2000E-02  5.2000E-02  5.2000E-02
       5.2000E-02  5.2000E-02  5.2000E-02  5.2000E-02  5.2000E-02  5.2000E-02  2.6000E-02  5.2000E-02  5.2000E-02  5.2000E-02
       5.2000E-02  5.2000E-02  5.2000E-02  5.2000E-02  5.2000E-02  5.2000E-02  5.2000E-02  6.5000E-02  6.5000E-02  6.5000E-02
       6.5000E-02  6.5000E-02  0.1300      0.1300      0.1300      0.3900      0.3900      0.3900      6.5000E-02  6.5000E-02
       5.2000E-02  2.6000E-02  2.6000E-02  2.6000E-02  2.6000E-02  2.6000E-02  2.6000E-02  5.2000E-02  0.1300      0.1300    
       0.1300      6.5000E-02  5.2000E-02  2.6000E-02  2.6000E-02  2.6000E-02  2.6000E-02  5.2000E-02  5.2000E-02  5.2000E-02
       6.5000E-02  0.1300      6.5000E-02  6.5000E-02  6.5000E-02  5.2000E-02  5.2000E-02  5.2000E-02  6.5000E-02  0.1300    
       0.1300      0.1300      6.5000E-02  6.5000E-02  6.5000E-02  6.5000E-02  6.5000E-02   0.000       0.000    
  59   2.6000E-02  2.6000E-02  5.2000E-02  5.2000E-02  5.2000E-02  5.2000E-02  5.2000E-02  5.2000E-02  5.2000E-02  5.2000E-02
       5.2000E-02  2.6000E-02  2.6000E-02  2.6000E-02  2.6000E-02  2.6000E-02  2.6000E-02  5.2000E-02  5.2000E-02  5.2000E-02
       5.2000E-02  5.2000E-02  5.2000E-02  5.2000E-02  5.2000E-02  5.2000E-02  5.2000E-02  5.2000E-02  6.5000E-02  6.5000E-02
       6.5000E-02  6.5000E-02  0.1300      0.1300      0.1300      0.1300      0.3900      0.3900      0.3900      6.5000E-02
       5.2000E-02  5.2000E-02  2.6000E-02  2.6000E-02  2.6000E-02  2.6000E-02  2.6000E-02  5.2000E-02  0.1300      5.2000E-02
       0.1300      6.5000E-02  5.2000E-02  2.6000E-02  2.6000E-02  2.6000E-02  2.6000E-02  5.2000E-02  5.2000E-02  5.2000E-02
       6.5000E-02  6.5000E-02  6.5000E-02  5.2000E-02  5.2000E-02  5.2000E-02  5.2000E-02  5.2000E-02  6.5000E-02  0.1300    
       0.1300      0.1300      6.5000E-02  6.5000E-02  6.5000E-02  6.5000E-02  6.5000E-02  6.5000E-02   0.000    
  60    0.000      2.6000E-02  2.6000E-02  5.2000E-02  5.2000E-02  5.2000E-02  2.6000E-02  2.6000E-02  2.6000E-02  2.6000E-02
       2.6000E-02  2.6000E-02  2.6000E-02   0.000       0.000       0.000      2.6000E-02  2.6000E-02  5.2000E-02  5.2000E-02
       5.2000E-02  5.2000E-02  5.2000E-02  5.2000E-02  5.2000E-02  5.2000E-02  5.2000E-02  5.2000E-02  5.2000E-02  6.5000E-02
       6.5000E-02  6.5000E-02  6.5000E-02  0.1300      0.1300      0.1300      0.3900      0.3900      0.3900      6.5000E-02
       5.2000E-02  5.2000E-02  2.6000E-02  2.6000E-02  2.6000E-02  2.6000E-02  2.6000E-02  5.2000E-02  5.2000E-02  5.2000E-02
       0.1300      6.5000E-02  5.2000E-02  2.6000E-02  5.2000E-02  5.2000E-02  5.2000E-02  5.2000E-02  5.2000E-02  6.5000E-02
       6.5000E-02  6.5000E-02  5.2000E-02  5.2000E-02  5.2000E-02  5.2000E-02  5.2000E-02  5.2000E-02  6.5000E-02  0.1300    
       0.1300      6.5000E-02  6.5000E-02  6.5000E-02  6.5000E-02  6.5000E-02  6.5000E-02  6.5000E-02  6.5000E-02
  61    0.000       0.000      2.6000E-02  2.6000E-02  2.6000E-02  2.6000E-02  2.6000E-02  2.6000E-02  2.6000E-02  2.6000E-02
       2.6000E-02   0.000       0.000       0.000       0.000       0.000       0.000      2.6000E-02  2.6000E-02  5.2000E-02
       5.2000E-02  5.2000E-02  5.2000E-02  5.2000E-02  5.2000E-02  5.2000E-02  5.2000E-02  5.2000E-02  5.2000E-02  5.2000E-02
       6.5000E-02  6.5000E-02  6.5000E-02  0.1300      0.1300      0.1300      0.3900      0.3900      0.3900      6.5000E-02
       5.2000E-02  5.2000E-02  2.6000E-02  2.6000E-02  2.6000E-02  2.6000E-02  2.6000E-02  2.6000E-02  5.2000E-02  5.2000E-02
       0.1300      0.1300      5.2000E-02  5.2000E-02  5.2000E-02  5.2000E-02  5.2000E-02  5.2000E-02  5.2000E-02  5.2000E-02
       5.2000E-02  5.2000E-02  5.2000E-02  5.2000E-02  5.2000E-02  5.2000E-02  5.2000E-02  5.2000E-02  6.5000E-02  0.1300    
       0.1300      6.5000E-02  6.5000E-02  6.5000E-02  6.5000E-02  6.5000E-02  6.5000E-02  6.5000E-02  6.5000E-02
  62    0.000       0.000       0.000      2.6000E-02   0.000       0.000       0.000       0.000       0.000       0.000    
        0.000       0.000       0.000       0.000       0.000       0.000       0.000       0.000       0.000      2.6000E-02
       5.2000E-02  5.2000E-02  5.2000E-02  5.2000E-02  5.2000E-02  5.2000E-02  5.2000E-02  5.2000E-02  5.2000E-02  5.2000E-02
       6.5000E-02  6.5000E-02  6.5000E-02  0.1300      0.1300      0.1300      0.3900      0.3900      0.1300      6.5000E-02
       5.2000E-02  5.2000E-02  2.6000E-02  2.6000E-02  2.6000E-02  2.6000E-02  2.6000E-02  2.6000E-02  5.2000E-02  5.2000E-02
       5.2000E-02  5.2000E-02  0.1300      5.2000E-02  5.2000E-02  5.2000E-02  5.2000E-02  5.2000E-02  5.2000E-02  5.2000E-02
       5.2000E-02  5.2000E-02  5.2000E-02  5.2000E-02  5.2000E-02  5.2000E-02  5.2000E-02  5.2000E-02  6.5000E-02  0.1300    
       6.5000E-02  6.5000E-02  6.5000E-02  6.5000E-02  6.5000E-02  6.5000E-02  6.5000E-02  5.2000E-02  5.2000E-02
  63    0.000       0.000       0.000       0.000       0.000       0.000       0.000       0.000       0.000       0.000    
        0.000       0.000       0.000       0.000       0.000       0.000       0.000       0.000       0.000      2.6000E-02
       2.6000E-02  2.6000E-02  5.2000E-02  5.2000E-02  5.2000E-02  5.2000E-02  5.2000E-02  5.2000E-02  5.2000E-02  5.2000E-02
       5.2000E-02  6.5000E-02  6.5000E-02  0.1300      0.1300      0.1300      0.3900      0.3900      0.1300      6.5000E-02
       6.5000E-02  5.2000E-02  5.2000E-02  2.6000E-02  2.6000E-02  2.6000E-02  2.6000E-02  2.6000E-02  2.6000E-02  2.6000E-02
       5.2000E-02  5.2000E-02  0.1300      0.1300      5.2000E-02  5.2000E-02  5.2000E-02  5.2000E-02  5.2000E-02  5.2000E-02
       5.2000E-02  5.2000E-02  5.2000E-02  5.2000E-02  5.2000E-02  5.2000E-02  5.2000E-02  5.2000E-02  6.5000E-02  6.5000E-02
       6.5000E-02  6.5000E-02  6.5000E-02  6.5000E-02  6.5000E-02  6.5000E-02  6.5000E-02  5.2000E-02  5.2000E-02
  64    0.000       0.000       0.000       0.000       0.000       0.000       0.000       0.000       0.000       0.000    
        0.000       0.000       0.000       0.000       0.000       0.000       0.000       0.000       0.000       0.000    
        0.000       0.000       0.000       0.000      5.2000E-02  5.2000E-02  5.2000E-02  5.2000E-02  5.2000E-02  5.2000E-02
       5.2000E-02  5.2000E-02  6.5000E-02  6.5000E-02  0.1300      0.1300      0.1300      0.3900      0.3900      0.1300    
       5.2000E-02  5.2000E-02  5.2000E-02  2.6000E-02  2.6000E-02  2.6000E-02  2.6000E-02  2.6000E-02  2.6000E-02  2.6000E-02
       5.2000E-02  5.2000E-02  6.5000E-02  0.1300      5.2000E-02  5.2000E-02  5.2000E-02  5.2000E-02  5.2000E-02  5.2000E-02
       5.2000E-02  5.2000E-02  5.2000E-02  5.2000E-02  5.2000E-02  5.2000E-02  5.2000E-02  6.5000E-02  6.5000E-02  6.5000E-02
       6.5000E-02  6.5000E-02  6.5000E-02  6.5000E-02  6.5000E-02  6.5000E-02  5.2000E-02  5.2000E-02  5.2000E-02
  65    0.000       0.000       0.000       0.000       0.000       0.000       0.000       0.000       0.000       0.000    
        0.000       0.000       0.000       0.000       0.000       0.000       0.000       0.000       0.000       0.000    
        0.000       0.000       0.000       0.000       0.000       0.000       0.000       0.000       0.000       0.000    
        0.000       0.000       0.000      6.5000E-02  0.1300      0.1300      0.1300      0.1300      0.1300      0.1300    
       5.2000E-02  5.2000E-02  5.2000E-02  2.6000E-02  2.6000E-02   0.000       0.000       0.000       0.000      2.6000E-02
       2.6000E-02  5.2000E-02  6.5000E-02  6.5000E-02  5.2000E-02  5.2000E-02  5.2000E-02  5.2000E-02  5.2000E-02  5.2000E-02
       5.2000E-02  5.2000E-02  5.2000E-02  5.2000E-02  5.2000E-02  5.2000E-02  5.2000E-02  6.5000E-02  6.5000E-02  6.5000E-02
       6.5000E-02  6.5000E-02  6.5000E-02  6.5000E-02  6.5000E-02  6.5000E-02  6.5000E-02  5.2000E-02  5.2000E-02
  66    0.000       0.000       0.000       0.000       0.000       0.000       0.000       0.000       0.000       0.000    
        0.000       0.000       0.000       0.000       0.000       0.000       0.000       0.000       0.000       0.000    
        0.000       0.000       0.000       0.000       0.000       0.000       0.000       0.000       0.000       0.000    
        0.000       0.000       0.000       0.000       0.000      6.5000E-02  6.5000E-02   0.000       0.000       0.000    
        0.000       0.000       0.000       0.000       0.000       0.000       0.000       0.000       0.000       0.000    
       2.6000E-02  5.2000E-02  6.5000E-02  6.5000E-02  6.5000E-02  5.2000E-02  5.2000E-02  5.2000E-02  5.2000E-02  5.2000E-02
       5.2000E-02  5.2000E-02  5.2000E-02  5.2000E-02  5.2000E-02  5.2000E-02  5.2000E-02  5.2000E-02  6.5000E-02  6.5000E-02
       6.5000E-02  6.5000E-02  6.5000E-02  6.5000E-02  6.5000E-02  6.5000E-02  6.5000E-02  5.2000E-02  5.2000E-02
  67    0.000       0.000       0.000       0.000       0.000       0.000       0.000       0.000       0.000       0.000    
        0.000       0.000       0.000       0.000       0.000       0.000       0.000       0.000       0.000       0.000    
        0.000       0.000       0.000       0.000       0.000       0.000       0.000       0.000       0.000       0.000    
        0.000       0.000       0.000       0.000       0.000       0.000       0.000       0.000       0.000       0.000    
        0.000       0.000       0.000       0.000       0.000       0.000       0.000       0.000       0.000       0.000    
        0.000       0.000      2.6000E-02  6.5000E-02  5.2000E-02  5.2000E-02  5.2000E-02  5.2000E-02  5.2000E-02  2.6000E-02
       2.6000E-02  2.6000E-02  2.6000E-02  2.6000E-02  5.2000E-02  5.2000E-02  5.2000E-02  5.2000E-02  6.5000E-02  6.5000E-02
       6.5000E-02   0.000       0.000       0.000       0.000       0.000       0.000       0.000       0.000    
  68    0.000       0.000       0.000       0.000       0.000       0.000       0.000       0.000       0.000       0.000    
        0.000       0.000       0.000       0.000       0.000       0.000       0.000       0.000       0.000       0.000    
        0.000       0.000       0.000       0.000       0.000       0.000       0.000       0.000       0.000       0.000    
        0.000       0.000       0.000       0.000       0.000       0.000       0.000       0.000       0.000       0.000    
        0.000       0.000       0.000       0.000       0.000       0.000       0.000       0.000       0.000       0.000    
        0.000       0.000       0.000      2.6000E-02  5.2000E-02  5.2000E-02  5.2000E-02  2.6000E-02  2.6000E-02  2.6000E-02
       2.6000E-02  2.6000E-02  2.6000E-02  2.6000E-02  5.2000E-02  5.2000E-02  5.2000E-02  6.5000E-02   0.000       0.000    
        0.000       0.000       0.000       0.000       0.000       0.000       0.000       0.000       0.000    
  69    0.000       0.000       0.000       0.000       0.000       0.000       0.000       0.000       0.000       0.000    
        0.000       0.000       0.000       0.000       0.000       0.000       0.000       0.000       0.000       0.000    
        0.000       0.000       0.000       0.000       0.000       0.000       0.000       0.000       0.000       0.000    
        0.000       0.000       0.000       0.000       0.000       0.000       0.000       0.000       0.000       0.000    
        0.000       0.000       0.000       0.000       0.000       0.000       0.000       0.000       0.000       0.000    
        0.000       0.000       0.000       0.000       0.000       0.000       0.000       0.000       0.000       0.000    
       2.6000E-02  2.6000E-02  2.6000E-02  2.6000E-02  6.5000E-02  6.5000E-02  6.5000E-02   0.000       0.000       0.000    
        0.000       0.000       0.000       0.000       0.000       0.000       0.000       0.000       0.000    
  70    0.000       0.000       0.000       0.000       0.000       0.000       0.000       0.000       0.000       0.000    
        0.000       0.000       0.000       0.000       0.000       0.000       0.000       0.000       0.000       0.000    
        0.000       0.000       0.000       0.000       0.000       0.000       0.000       0.000       0.000       0.000    
        0.000       0.000       0.000       0.000       0.000       0.000       0.000       0.000       0.000       0.000    
        0.000       0.000       0.000       0.000       0.000       0.000       0.000       0.000       0.000       0.000    
        0.000       0.000       0.000       0.000       0.000       0.000       0.000       0.000       0.000       0.000    
        0.000      2.6000E-02  2.6000E-02  2.6000E-02  6.5000E-02  6.5000E-02   0.000       0.000       0.000       0.000    
        0.000       0.000       0.000       0.000       0.000       0.000       0.000       0.000       0.000    
  71    0.000       0.000       0.000       0.000       0.000       0.000       0.000       0.000       0.000       0.000    
        0.000       0.000       0.000       0.000       0.000       0.000       0.000       0.000       0.000       0.000    
        0.000       0.000       0.000       0.000       0.000       0.000       0.000       0.000       0.000       0.000    
        0.000       0.000       0.000       0.000       0.000       0.000       0.000       0.000       0.000       0.000    
        0.000       0.000       0.000       0.000       0.000       0.000       0.000       0.000       0.000       0.000    
        0.000       0.000       0.000       0.000       0.000       0.000       0.000       0.000       0.000       0.000    
        0.000       0.000      2.6000E-02  5.2000E-02   0.000       0.000       0.000       0.000       0.000       0.000    
        0.000       0.000       0.000       0.000       0.000       0.000       0.000       0.000       0.000    



                VERTICAL HYD. COND. FOR LAYER   2
 READING ON UNIT   12 WITH FORMAT: (FREE)              

            1           2           3           4           5           6           7           8           9          10
           11          12          13          14          15          16          17          18          19          20
           21          22          23          24          25          26          27          28          29          30
           31          32          33          34          35          36          37          38          39          40
           41          42          43          44          45          46          47          48          49          50
           51          52          53          54          55          56          57          58          59          60
           61          62          63          64          65          66          67          68          69          70
           71          72          73          74          75          76          77          78          79
 ........................................................................................................................
   1    0.000       0.000       0.000       0.000       0.000       0.000       0.000       0.000       0.000       0.000    
        0.000       0.000       0.000       0.000       0.000       0.000       0.000       0.000       0.000       0.000    
        0.000       0.000       0.000       0.000       0.000       0.000       0.000       0.000       0.000       0.000    
        0.000       0.000       0.000       0.000       0.000       0.000       0.000       0.000       0.000       0.000    
        0.000       0.000       0.000       0.000       0.000       0.000       0.000       0.000       0.000       0.000    
        0.000      2.6000E-02  2.6000E-02   0.000       0.000       0.000       0.000       0.000       0.000       0.000    
        0.000       0.000       0.000       0.000       0.000       0.000       0.000       0.000       0.000       0.000    
        0.000       0.000       0.000       0.000       0.000       0.000       0.000       0.000       0.000    
   2    0.000       0.000       0.000       0.000       0.000       0.000       0.000       0.000       0.000       0.000    
        0.000       0.000       0.000       0.000       0.000       0.000       0.000       0.000       0.000       0.000    
        0.000       0.000       0.000       0.000       0.000       0.000       0.000       0.000       0.000       0.000    
        0.000       0.000       0.000       0.000       0.000       0.000       0.000       0.000       0.000       0.000    
        0.000       0.000       0.000       0.000       0.000       0.000       0.000       0.000       0.000       0.000    
        0.000      2.6000E-02  6.5000E-02  6.5000E-02   0.000       0.000       0.000       0.000       0.000       0.000    
        0.000       0.000       0.000       0.000       0.000       0.000       0.000       0.000       0.000       0.000    
        0.000       0.000       0.000       0.000       0.000       0.000       0.000       0.000       0.000    
   3    0.000       0.000       0.000       0.000       0.000       0.000       0.000       0.000       0.000       0.000    
        0.000       0.000       0.000       0.000       0.000       0.000       0.000       0.000       0.000       0.000    
        0.000       0.000       0.000       0.000       0.000       0.000       0.000       0.000       0.000       0.000    
        0.000       0.000       0.000       0.000       0.000       0.000       0.000       0.000       0.000       0.000    
        0.000       0.000       0.000       0.000       0.000       0.000       0.000       0.000       0.000       0.000    
        0.000      2.6000E-02  6.5000E-02  0.1300       0.000       0.000       0.000       0.000       0.000       0.000    
        0.000       0.000       0.000       0.000       0.000       0.000       0.000       0.000       0.000       0.000    
        0.000       0.000       0.000       0.000       0.000       0.000       0.000       0.000       0.000    
   4    0.000       0.000       0.000       0.000       0.000       0.000       0.000       0.000       0.000       0.000    
        0.000       0.000       0.000       0.000       0.000       0.000       0.000       0.000       0.000       0.000    
        0.000       0.000       0.000       0.000       0.000       0.000       0.000       0.000       0.000       0.000    
        0.000       0.000       0.000       0.000       0.000       0.000       0.000       0.000       0.000       0.000    
        0.000       0.000       0.000       0.000       0.000       0.000       0.000       0.000       0.000       0.000    
        0.000      6.5000E-02  6.5000E-02  0.1300      0.1300       0.000       0.000       0.000       0.000       0.000    
        0.000       0.000       0.000       0.000       0.000       0.000       0.000       0.000       0.000       0.000    
        0.000       0.000       0.000       0.000       0.000       0.000       0.000       0.000       0.000    
   5    0.000       0.000       0.000       0.000       0.000       0.000       0.000       0.000       0.000       0.000    
        0.000       0.000       0.000       0.000       0.000       0.000       0.000       0.000       0.000       0.000    
        0.000       0.000       0.000       0.000       0.000       0.000       0.000       0.000       0.000       0.000    
        0.000       0.000       0.000       0.000       0.000       0.000       0.000       0.000       0.000       0.000    
        0.000       0.000       0.000       0.000       0.000       0.000       0.000       0.000       0.000       0.000    
        0.000      6.5000E-02  6.5000E-02  6.5000E-02  0.1300      6.5000E-02  6.5000E-02   0.000       0.000       0.000    
        0.000       0.000       0.000       0.000       0.000       0.000       0.000       0.000       0.000       0.000    
        0.000       0.000       0.000       0.000       0.000       0.000       0.000       0.000       0.000    
   6    0.000       0.000       0.000       0.000       0.000       0.000       0.000       0.000       0.000       0.000    
        0.000       0.000       0.000       0.000       0.000       0.000       0.000       0.000       0.000       0.000    
        0.000       0.000       0.000       0.000       0.000       0.000       0.000       0.000       0.000       0.000    
        0.000       0.000       0.000       0.000       0.000       0.000       0.000       0.000       0.000       0.000    
        0.000       0.000       0.000       0.000       0.000       0.000       0.000       0.000       0.000       0.000    
        0.000      6.5000E-02  6.5000E-02  6.5000E-02  0.1300      0.1300      6.5000E-02  6.5000E-02  6.5000E-02   0.000    
        0.000       0.000       0.000      6.5000E-02  6.5000E-02   0.000       0.000       0.000       0.000       0.000    
        0.000       0.000       0.000       0.000       0.000       0.000       0.000       0.000       0.000    
   7    0.000       0.000       0.000       0.000       0.000       0.000       0.000       0.000       0.000       0.000    
        0.000       0.000       0.000       0.000       0.000       0.000       0.000       0.000       0.000       0.000    
        0.000       0.000       0.000       0.000       0.000       0.000       0.000       0.000       0.000       0.000    
        0.000       0.000       0.000       0.000       0.000       0.000       0.000       0.000       0.000       0.000    
        0.000       0.000       0.000       0.000       0.000       0.000       0.000       0.000       0.000       0.000    
        0.000      6.5000E-02  6.5000E-02  6.5000E-02  0.1300      0.1300      0.1300      6.5000E-02  6.5000E-02  6.5000E-02
       6.5000E-02  6.5000E-02  6.5000E-02  6.5000E-02  6.5000E-02  6.5000E-02   0.000       0.000       0.000       0.000    
        0.000       0.000       0.000       0.000       0.000       0.000       0.000       0.000       0.000    
   8    0.000       0.000       0.000       0.000       0.000       0.000       0.000       0.000       0.000       0.000    
        0.000       0.000       0.000       0.000       0.000       0.000       0.000       0.000       0.000       0.000    
        0.000       0.000       0.000       0.000       0.000       0.000       0.000       0.000       0.000       0.000    
        0.000       0.000       0.000       0.000       0.000       0.000       0.000       0.000       0.000       0.000    
        0.000       0.000       0.000       0.000       0.000       0.000       0.000       0.000       0.000       0.000    
        0.000      6.5000E-02  6.5000E-02  6.5000E-02  0.1300      0.1300      0.1300      6.5000E-02  6.5000E-02  6.5000E-02
       6.5000E-02  6.5000E-02  6.5000E-02  6.5000E-02  6.5000E-02  6.5000E-02  6.5000E-02  6.5000E-02   0.000       0.000    
        0.000       0.000       0.000       0.000       0.000       0.000       0.000       0.000       0.000    
   9    0.000       0.000       0.000       0.000       0.000       0.000       0.000       0.000       0.000       0.000    
        0.000       0.000       0.000       0.000       0.000       0.000       0.000       0.000       0.000       0.000    
        0.000       0.000       0.000       0.000       0.000       0.000       0.000       0.000       0.000       0.000    
        0.000       0.000       0.000       0.000       0.000       0.000       0.000       0.000       0.000       0.000    
        0.000       0.000       0.000       0.000       0.000       0.000       0.000       0.000       0.000       0.000    
       5.2000E-02  6.5000E-02  6.5000E-02  6.5000E-02  0.1300      0.1300      0.1300      6.5000E-02  6.5000E-02  6.5000E-02
       6.5000E-02  6.5000E-02  6.5000E-02  6.5000E-02  6.5000E-02  6.5000E-02  6.5000E-02  6.5000E-02  6.5000E-02   0.000    
        0.000       0.000       0.000       0.000       0.000       0.000       0.000       0.000       0.000    
  10    0.000       0.000       0.000       0.000       0.000       0.000       0.000       0.000       0.000       0.000    
        0.000       0.000       0.000       0.000       0.000       0.000       0.000       0.000       0.000       0.000    
        0.000       0.000       0.000       0.000       0.000       0.000       0.000       0.000       0.000       0.000    
        0.000       0.000       0.000       0.000       0.000       0.000       0.000       0.000       0.000       0.000    
        0.000       0.000       0.000       0.000       0.000       0.000       0.000       0.000       0.000      6.5000E-02
       6.5000E-02  6.5000E-02  6.5000E-02  6.5000E-02  6.5000E-02  0.1300      0.1300      0.1300      6.5000E-02  6.5000E-02
       6.5000E-02  6.5000E-02  6.5000E-02  6.5000E-02  6.5000E-02  6.5000E-02  6.5000E-02  6.5000E-02  6.5000E-02  6.5000E-02
        0.000       0.000       0.000       0.000       0.000       0.000       0.000       0.000       0.000    
  11    0.000       0.000       0.000       0.000       0.000       0.000       0.000       0.000       0.000       0.000    
        0.000       0.000       0.000       0.000       0.000       0.000       0.000       0.000       0.000       0.000    
        0.000       0.000       0.000       0.000       0.000       0.000       0.000       0.000       0.000       0.000    
        0.000       0.000       0.000       0.000       0.000       0.000       0.000       0.000       0.000       0.000    
        0.000       0.000       0.000       0.000       0.000       0.000       0.000       0.000      6.5000E-02  6.5000E-02
       6.5000E-02  6.5000E-02  6.5000E-02  6.5000E-02  6.5000E-02  0.1300      0.1300      0.1300      6.5000E-02  6.5000E-02
       6.5000E-02  6.5000E-02  6.5000E-02  6.5000E-02  6.5000E-02  6.5000E-02  6.5000E-02  6.5000E-02  6.5000E-02  6.5000E-02
       6.5000E-02   0.000       0.000       0.000       0.000       0.000       0.000       0.000       0.000    
  12    0.000       0.000       0.000       0.000       0.000       0.000       0.000       0.000       0.000       0.000    
        0.000       0.000       0.000       0.000       0.000       0.000       0.000       0.000       0.000       0.000    
        0.000       0.000       0.000       0.000       0.000       0.000       0.000       0.000       0.000       0.000    
        0.000       0.000       0.000       0.000       0.000       0.000       0.000       0.000       0.000       0.000    
        0.000      5.2000E-02  5.2000E-02   0.000       0.000       0.000       0.000      5.2000E-02  6.5000E-02  6.5000E-02
       6.5000E-02  6.5000E-02  6.5000E-02  6.5000E-02  6.5000E-02  0.1300      0.1300      0.1300      6.5000E-02  6.5000E-02
       6.5000E-02  6.5000E-02  6.5000E-02  6.5000E-02  6.5000E-02  6.5000E-02  6.5000E-02  6.5000E-02  6.5000E-02  6.5000E-02
       6.5000E-02   0.000       0.000       0.000       0.000       0.000       0.000       0.000       0.000    
  13    0.000       0.000       0.000       0.000       0.000       0.000       0.000       0.000       0.000       0.000    
        0.000       0.000       0.000       0.000       0.000       0.000       0.000       0.000       0.000       0.000    
        0.000       0.000       0.000       0.000       0.000       0.000       0.000       0.000       0.000       0.000    
        0.000       0.000       0.000       0.000       0.000       0.000       0.000       0.000      5.2000E-02  5.2000E-02
       5.2000E-02  5.2000E-02  5.2000E-02  5.2000E-02  5.2000E-02  5.2000E-02  5.2000E-02  5.2000E-02  6.5000E-02  6.5000E-02
       6.5000E-02  6.5000E-02  6.5000E-02  6.5000E-02  6.5000E-02  0.1300      0.1300      0.1300      6.5000E-02  6.5000E-02
       6.5000E-02  6.5000E-02  6.5000E-02  6.5000E-02  6.5000E-02  6.5000E-02  6.5000E-02  6.5000E-02  6.5000E-02  6.5000E-02
       6.5000E-02  6.5000E-02   0.000       0.000       0.000       0.000       0.000       0.000       0.000    
  14    0.000       0.000       0.000       0.000       0.000       0.000       0.000       0.000       0.000       0.000    
        0.000       0.000       0.000       0.000       0.000       0.000       0.000       0.000       0.000       0.000    
        0.000       0.000       0.000       0.000       0.000       0.000       0.000       0.000       0.000       0.000    
        0.000       0.000       0.000       0.000       0.000       0.000       0.000       0.000      5.2000E-02  5.2000E-02
       5.2000E-02  5.2000E-02  5.2000E-02  5.2000E-02  6.5000E-02  6.5000E-02  6.5000E-02  6.5000E-02  6.5000E-02  6.5000E-02
       6.5000E-02  6.5000E-02  6.5000E-02  6.5000E-02  6.5000E-02  0.1300      0.1300      0.1300      0.1300      0.1300    
       6.5000E-02  6.5000E-02  6.5000E-02  6.5000E-02  6.5000E-02  6.5000E-02  6.5000E-02  0.1300      6.5000E-02  6.5000E-02
       6.5000E-02  6.5000E-02  6.5000E-02   0.000       0.000       0.000       0.000       0.000       0.000    
  15    0.000       0.000       0.000       0.000       0.000       0.000       0.000       0.000       0.000       0.000    
        0.000       0.000       0.000       0.000       0.000       0.000       0.000       0.000       0.000       0.000    
        0.000       0.000       0.000       0.000       0.000       0.000       0.000       0.000       0.000       0.000    
        0.000       0.000       0.000       0.000       0.000       0.000       0.000      5.2000E-02  5.2000E-02  5.2000E-02
       6.5000E-02  6.5000E-02  6.5000E-02  6.5000E-02  6.5000E-02  6.5000E-02  6.5000E-02  6.5000E-02  6.5000E-02  6.5000E-02
       6.5000E-02  6.5000E-02  6.5000E-02  6.5000E-02  6.5000E-02  6.5000E-02  0.1300      0.1300      0.1300      0.1300    
       0.1300      6.5000E-02  6.5000E-02  0.1300      0.1300      0.1300      0.1300      0.1300      0.1300      6.5000E-02
       6.5000E-02  6.5000E-02  3.9000E-02   0.000       0.000       0.000       0.000       0.000       0.000    
  16    0.000       0.000       0.000       0.000       0.000       0.000       0.000       0.000       0.000       0.000    
        0.000       0.000       0.000       0.000       0.000       0.000       0.000       0.000       0.000       0.000    
        0.000       0.000       0.000       0.000       0.000       0.000       0.000       0.000       0.000       0.000    
        0.000       0.000       0.000       0.000       0.000       0.000      5.2000E-02  5.2000E-02  5.2000E-02  5.2000E-02
       5.2000E-02  6.5000E-02  6.5000E-02  6.5000E-02  6.5000E-02  6.5000E-02  6.5000E-02  6.5000E-02  6.5000E-02  6.5000E-02
       6.5000E-02  6.5000E-02  6.5000E-02  6.5000E-02  6.5000E-02  6.5000E-02  0.1300      0.1300      0.1300      0.1300    
       0.1300      0.1300      0.1300      0.1300      0.1300      0.1300      0.1300      0.1300      0.1300      6.5000E-02
       6.5000E-02  6.5000E-02  3.9000E-02  3.9000E-02   0.000       0.000       0.000       0.000       0.000    
  17    0.000       0.000       0.000       0.000       0.000       0.000       0.000       0.000       0.000       0.000    
        0.000       0.000       0.000       0.000       0.000       0.000       0.000       0.000       0.000       0.000    
        0.000       0.000       0.000       0.000       0.000       0.000       0.000       0.000       0.000       0.000    
        0.000       0.000       0.000       0.000       0.000      5.2000E-02  5.2000E-02  5.2000E-02  5.2000E-02  5.2000E-02
       5.2000E-02  6.5000E-02  6.5000E-02  6.5000E-02  6.5000E-02  6.5000E-02  6.5000E-02  6.5000E-02  6.5000E-02  6.5000E-02
       6.5000E-02  6.5000E-02  6.5000E-02  6.5000E-02  6.5000E-02  6.5000E-02  0.1300      0.1300      0.1300      0.1300    
       0.1300      0.1300      0.1300      0.1300      0.1300      0.1300      0.1300      0.1300      0.1300      6.5000E-02
       6.5000E-02  6.5000E-02  3.9000E-02  3.9000E-02   0.000       0.000       0.000       0.000       0.000    
  18    0.000       0.000       0.000       0.000       0.000       0.000       0.000       0.000       0.000       0.000    
        0.000       0.000       0.000       0.000       0.000       0.000       0.000       0.000       0.000       0.000    
        0.000       0.000       0.000       0.000       0.000       0.000       0.000       0.000       0.000       0.000    
        0.000       0.000       0.000       0.000      5.2000E-02  5.2000E-02  5.2000E-02  5.2000E-02  5.2000E-02  5.2000E-02
       5.2000E-02  5.2000E-02  5.2000E-02  6.5000E-02  6.5000E-02  6.5000E-02  6.5000E-02  6.5000E-02  6.5000E-02  6.5000E-02
       6.5000E-02  6.5000E-02  6.5000E-02  6.5000E-02  6.5000E-02  6.5000E-02  0.1300      0.1300      0.1300      0.1300    
       0.1300      0.1300      0.1300      0.1300      0.1300      0.1300      0.1300      0.1300      0.1300      0.1300    
       6.5000E-02  6.5000E-02  6.5000E-02  3.9000E-02   0.000       0.000       0.000       0.000       0.000    
  19    0.000       0.000       0.000       0.000       0.000       0.000       0.000       0.000       0.000       0.000    
        0.000       0.000       0.000       0.000       0.000       0.000       0.000       0.000       0.000       0.000    
        0.000       0.000       0.000       0.000       0.000       0.000       0.000       0.000       0.000       0.000    
        0.000       0.000       0.000      5.2000E-02  5.2000E-02  5.2000E-02  5.2000E-02  5.2000E-02  5.2000E-02  5.2000E-02
       5.2000E-02  5.2000E-02  5.2000E-02  5.2000E-02  6.5000E-02  6.5000E-02  6.5000E-02  6.5000E-02  6.5000E-02  6.5000E-02
       6.5000E-02  6.5000E-02  6.5000E-02  6.5000E-02  6.5000E-02  6.5000E-02  6.5000E-02  0.1300      0.1300      0.1300    
       0.1300      0.1300      0.1300      0.1300      0.1300      0.1300      0.1300      0.1300      0.1300      0.1300    
       6.5000E-02  6.5000E-02  6.5000E-02  3.9000E-02   0.000       0.000       0.000       0.000       0.000    
  20    0.000       0.000       0.000       0.000       0.000       0.000       0.000       0.000       0.000       0.000    
        0.000       0.000       0.000       0.000       0.000       0.000       0.000       0.000       0.000       0.000    
        0.000       0.000       0.000       0.000       0.000       0.000       0.000       0.000       0.000       0.000    
        0.000       0.000       0.000      2.6000E-02  5.2000E-02  5.2000E-02  5.2000E-02  5.2000E-02  5.2000E-02  5.2000E-02
       5.2000E-02  5.2000E-02  5.2000E-02  5.2000E-02  6.5000E-02  6.5000E-02  6.5000E-02  6.5000E-02  6.5000E-02  6.5000E-02
       6.5000E-02  6.5000E-02  6.5000E-02  6.5000E-02  6.5000E-02  6.5000E-02  6.5000E-02  0.1300      0.1300      0.1300    
       0.1300      0.1300      0.1300      0.1300      0.1300      0.1300      0.1300      0.1300      0.1300      0.1300    
       6.5000E-02  6.5000E-02  6.5000E-02  3.9000E-02   0.000       0.000       0.000       0.000       0.000    
  21    0.000       0.000       0.000       0.000       0.000       0.000       0.000       0.000       0.000       0.000    
        0.000       0.000       0.000       0.000       0.000       0.000       0.000       0.000       0.000       0.000    
        0.000       0.000       0.000       0.000       0.000       0.000       0.000       0.000       0.000       0.000    
        0.000       0.000      2.6000E-02  2.6000E-02  5.2000E-02  2.6000E-02  5.2000E-02  5.2000E-02  5.2000E-02  5.2000E-02
       5.2000E-02  5.2000E-02  5.2000E-02  5.2000E-02  5.2000E-02  6.5000E-02  6.5000E-02  6.5000E-02  6.5000E-02  6.5000E-02
       6.5000E-02  6.5000E-02  6.5000E-02  6.5000E-02  6.5000E-02  6.5000E-02  6.5000E-02  6.5000E-02  0.1300      0.1300    
       0.1300      0.1300      0.1300      0.1300      0.1300      0.1300      0.1300      0.1300      0.1300      6.5000E-02
       6.5000E-02  6.5000E-02  6.5000E-02  3.9000E-02  3.9000E-02   0.000       0.000       0.000       0.000    
  22    0.000       0.000       0.000       0.000       0.000       0.000       0.000       0.000       0.000       0.000    
        0.000       0.000       0.000       0.000       0.000       0.000       0.000       0.000       0.000       0.000    
        0.000       0.000       0.000       0.000       0.000       0.000       0.000       0.000       0.000       0.000    
        0.000       0.000      2.6000E-02  2.6000E-02  2.6000E-02  2.6000E-02  5.2000E-02  5.2000E-02  5.2000E-02  5.2000E-02
       5.2000E-02  5.2000E-02  5.2000E-02  5.2000E-02  5.2000E-02  6.5000E-02  6.5000E-02  6.5000E-02  6.5000E-02  6.5000E-02
       6.5000E-02  6.5000E-02  6.5000E-02  6.5000E-02  6.5000E-02  6.5000E-02  6.5000E-02  6.5000E-02  6.5000E-02  6.5000E-02
       6.5000E-02  0.1300      0.1300      0.1300      0.1300      0.1300      0.1300      0.1300      0.1300      6.5000E-02
       6.5000E-02  6.5000E-02  6.5000E-02  6.5000E-02   0.000       0.000       0.000       0.000       0.000    
  23    0.000       0.000       0.000       0.000       0.000       0.000       0.000       0.000       0.000       0.000    
        0.000       0.000       0.000       0.000       0.000       0.000       0.000       0.000       0.000       0.000    
        0.000       0.000       0.000       0.000       0.000       0.000       0.000       0.000       0.000       0.000    
        0.000      2.6000E-02  2.6000E-02  2.6000E-02  2.6000E-02  5.2000E-02  5.2000E-02  5.2000E-02  5.2000E-02  5.2000E-02
       5.2000E-02  5.2000E-02  5.2000E-02  5.2000E-02  5.2000E-02  6.5000E-02  6.5000E-02  0.1300      6.5000E-02  6.5000E-02
       6.5000E-02  6.5000E-02  6.5000E-02  6.5000E-02  6.5000E-02  6.5000E-02  6.5000E-02  6.5000E-02  6.5000E-02  6.5000E-02
       6.5000E-02  6.5000E-02  0.1300      0.1300      0.1300      0.1300      0.1300      0.1300      0.1300      6.5000E-02
       6.5000E-02   0.000       0.000       0.000       0.000       0.000       0.000       0.000       0.000    
  24    0.000       0.000       0.000       0.000       0.000       0.000       0.000       0.000       0.000       0.000    
        0.000       0.000       0.000       0.000       0.000       0.000       0.000       0.000       0.000       0.000    
        0.000       0.000       0.000       0.000       0.000       0.000       0.000       0.000      2.6000E-02  2.6000E-02
       2.6000E-02  2.6000E-02  2.6000E-02  2.6000E-02  2.6000E-02  5.2000E-02  5.2000E-02  5.2000E-02  5.2000E-02  5.2000E-02
       5.2000E-02  5.2000E-02  5.2000E-02  5.2000E-02  5.2000E-02  6.5000E-02  6.5000E-02  0.1300      0.1300      6.5000E-02
       6.5000E-02  6.5000E-02  6.5000E-02  6.5000E-02  6.5000E-02  6.5000E-02  6.5000E-02  6.5000E-02  6.5000E-02  6.5000E-02
       6.5000E-02  6.5000E-02  6.5000E-02  0.1300      0.1300      0.1300      0.1300      0.1300      0.1300      6.5000E-02
       6.5000E-02   0.000       0.000       0.000       0.000       0.000       0.000       0.000       0.000    
  25    0.000       0.000       0.000       0.000       0.000       0.000       0.000       0.000       0.000       0.000    
        0.000       0.000       0.000       0.000       0.000       0.000       0.000       0.000       0.000       0.000    
        0.000       0.000       0.000       0.000       0.000       0.000       0.000      2.6000E-02  2.6000E-02  2.6000E-02
       2.6000E-02  2.6000E-02  2.6000E-02  2.6000E-02  5.2000E-02  5.2000E-02  5.2000E-02  5.2000E-02  5.2000E-02  5.2000E-02
       5.2000E-02  5.2000E-02  5.2000E-02  5.2000E-02  6.5000E-02  6.5000E-02  6.5000E-02  0.1300      0.1300      6.5000E-02
       6.5000E-02  6.5000E-02  6.5000E-02  6.5000E-02  6.5000E-02  6.5000E-02  6.5000E-02  6.5000E-02  6.5000E-02  6.5000E-02
       6.5000E-02  6.5000E-02  6.5000E-02  6.5000E-02  6.5000E-02  0.1300      0.1300      0.1300      0.1300      6.5000E-02
       6.5000E-02   0.000       0.000       0.000       0.000       0.000       0.000       0.000       0.000    
  26    0.000       0.000       0.000       0.000       0.000       0.000       0.000       0.000       0.000       0.000    
        0.000       0.000       0.000       0.000       0.000       0.000       0.000       0.000       0.000       0.000    
        0.000       0.000       0.000       0.000       0.000      2.6000E-02  2.6000E-02  2.6000E-02  2.6000E-02  2.6000E-02
       2.6000E-02  2.6000E-02  2.6000E-02  5.2000E-02  5.2000E-02  5.2000E-02  5.2000E-02  5.2000E-02  5.2000E-02  5.2000E-02
       5.2000E-02  5.2000E-02  6.5000E-02  6.5000E-02  6.5000E-02  6.5000E-02  6.5000E-02  6.5000E-02  0.1300      0.1300    
       0.1300      6.5000E-02  6.5000E-02  6.5000E-02  6.5000E-02  6.5000E-02  6.5000E-02  6.5000E-02  6.5000E-02  6.5000E-02
       6.5000E-02  6.5000E-02  6.5000E-02  6.5000E-02  6.5000E-02  0.1300      0.1300      0.1300      0.1300      6.5000E-02
       6.5000E-02   0.000       0.000       0.000       0.000       0.000       0.000       0.000       0.000    
  27    0.000       0.000       0.000       0.000       0.000       0.000       0.000       0.000       0.000       0.000    
        0.000       0.000       0.000       0.000       0.000       0.000       0.000       0.000       0.000       0.000    
        0.000       0.000       0.000       0.000      2.6000E-02  2.6000E-02  2.6000E-02  2.6000E-02  2.6000E-02  2.6000E-02
       2.6000E-02  2.6000E-02  5.2000E-02  5.2000E-02  5.2000E-02  5.2000E-02  5.2000E-02  5.2000E-02  5.2000E-02  5.2000E-02
       5.2000E-02  6.5000E-02  6.5000E-02  6.5000E-02  6.5000E-02  6.5000E-02  6.5000E-02  6.5000E-02  6.5000E-02  0.1300    
       0.1300      6.5000E-02  6.5000E-02  6.5000E-02  6.5000E-02  6.5000E-02  6.5000E-02  6.5000E-02  6.5000E-02  6.5000E-02
       6.5000E-02  6.5000E-02  6.5000E-02  6.5000E-02  6.5000E-02  0.1300      0.1300      0.1300      0.1300      0.1300    
       6.5000E-02   0.000       0.000       0.000       0.000       0.000       0.000       0.000       0.000    
  28    0.000       0.000       0.000       0.000       0.000       0.000       0.000       0.000       0.000       0.000    
        0.000       0.000       0.000       0.000       0.000       0.000       0.000       0.000       0.000       0.000    
        0.000       0.000       0.000      2.6000E-02  2.6000E-02  2.6000E-02  2.6000E-02  2.6000E-02  2.6000E-02  2.6000E-02
       2.6000E-02  5.2000E-02  5.2000E-02  5.2000E-02  5.2000E-02  5.2000E-02  5.2000E-02  5.2000E-02  6.5000E-02  6.5000E-02
       6.5000E-02  6.5000E-02  6.5000E-02  6.5000E-02  6.5000E-02  6.5000E-02  6.5000E-02  6.5000E-02  6.5000E-02  6.5000E-02
       0.1300      0.1300      6.5000E-02  6.5000E-02  6.5000E-02  6.5000E-02  6.5000E-02  6.5000E-02  6.5000E-02  6.5000E-02
       6.5000E-02  6.5000E-02  6.5000E-02  6.5000E-02  6.5000E-02  6.5000E-02  0.1300      0.1300      0.3900      0.1300    
       6.5000E-02  6.5000E-02   0.000       0.000       0.000       0.000       0.000       0.000       0.000    
  29    0.000       0.000       0.000       0.000       0.000       0.000       0.000       0.000       0.000       0.000    
        0.000       0.000       0.000       0.000       0.000       0.000       0.000       0.000       0.000       0.000    
        0.000      2.6000E-02  2.6000E-02  2.6000E-02  2.6000E-02  2.6000E-02  2.6000E-02  2.6000E-02  2.6000E-02  5.2000E-02
       5.2000E-02  5.2000E-02  5.2000E-02  5.2000E-02  5.2000E-02  5.2000E-02  5.2000E-02  6.5000E-02  6.5000E-02  6.5000E-02
       6.5000E-02  6.5000E-02  6.5000E-02  6.5000E-02  6.5000E-02  6.5000E-02  6.5000E-02  6.5000E-02  6.5000E-02  6.5000E-02
       0.1300      0.1300      6.5000E-02  6.5000E-02  6.5000E-02  6.5000E-02  6.5000E-02  6.5000E-02  6.5000E-02  6.5000E-02
       6.5000E-02  6.5000E-02  6.5000E-02  6.5000E-02  6.5000E-02  6.5000E-02  0.1300      0.1300      0.3900      0.1300    
       6.5000E-02  6.5000E-02   0.000       0.000       0.000       0.000       0.000       0.000       0.000    
  30    0.000       0.000       0.000       0.000       0.000       0.000       0.000       0.000       0.000       0.000    
        0.000       0.000       0.000       0.000       0.000       0.000       0.000       0.000       0.000      2.6000E-02
       2.6000E-02  2.6000E-02  2.6000E-02  2.6000E-02  2.6000E-02  2.6000E-02  2.6000E-02  5.2000E-02  5.2000E-02  5.2000E-02
       5.2000E-02  5.2000E-02  5.2000E-02  5.2000E-02  5.2000E-02  5.2000E-02  5.2000E-02  6.5000E-02  6.5000E-02  6.5000E-02
       6.5000E-02  6.5000E-02  6.5000E-02  6.5000E-02  6.5000E-02  6.5000E-02  6.5000E-02  6.5000E-02  6.5000E-02  6.5000E-02
       0.1300      0.1300      6.5000E-02  6.5000E-02  6.5000E-02  6.5000E-02  6.5000E-02  6.5000E-02  6.5000E-02  6.5000E-02
       6.5000E-02  6.5000E-02  6.5000E-02  6.5000E-02  6.5000E-02  6.5000E-02  0.1300      0.1300      0.3900      0.1300    
       6.5000E-02  6.5000E-02   0.000       0.000       0.000       0.000       0.000       0.000       0.000    
  31    0.000       0.000       0.000       0.000       0.000       0.000       0.000       0.000       0.000       0.000    
        0.000       0.000       0.000       0.000       0.000       0.000       0.000       0.000      2.6000E-02  2.6000E-02
       2.6000E-02  2.6000E-02  2.6000E-02  5.2000E-02  5.2000E-02  5.2000E-02  5.2000E-02  5.2000E-02  5.2000E-02  5.2000E-02
       5.2000E-02  5.2000E-02  5.2000E-02  5.2000E-02  5.2000E-02  5.2000E-02  6.5000E-02  6.5000E-02  6.5000E-02  6.5000E-02
       6.5000E-02  6.5000E-02  6.5000E-02  0.1300      6.5000E-02  6.5000E-02  6.5000E-02  6.5000E-02  6.5000E-02  6.5000E-02
       0.1300      0.1300      6.5000E-02  6.5000E-02  6.5000E-02  6.5000E-02  6.5000E-02  6.5000E-02  6.5000E-02  6.5000E-02
       6.5000E-02  6.5000E-02  6.5000E-02  6.5000E-02  6.5000E-02  6.5000E-02  0.1300      0.1300      0.3900      0.3900    
       6.5000E-02  6.5000E-02   0.000       0.000       0.000       0.000       0.000       0.000       0.000    
  32    0.000       0.000       0.000       0.000       0.000       0.000       0.000       0.000       0.000       0.000    
        0.000       0.000       0.000       0.000       0.000       0.000      2.6000E-02  2.6000E-02  2.6000E-02  2.6000E-02
       2.6000E-02  2.6000E-02  5.2000E-02  5.2000E-02  5.2000E-02  5.2000E-02  5.2000E-02  5.2000E-02  5.2000E-02  5.2000E-02
       5.2000E-02  5.2000E-02  5.2000E-02  5.2000E-02  5.2000E-02  5.2000E-02  6.5000E-02  6.5000E-02  0.3900      0.3900    
       0.3900      0.3900      0.3900      0.3900      6.5000E-02  6.5000E-02  6.5000E-02  6.5000E-02  6.5000E-02  6.5000E-02
       0.1300      0.1300      0.1300      6.5000E-02  6.5000E-02  6.5000E-02  6.5000E-02  6.5000E-02  6.5000E-02  6.5000E-02
       6.5000E-02  6.5000E-02  6.5000E-02  6.5000E-02  6.5000E-02  6.5000E-02  6.5000E-02  0.1300      0.1300      0.3900    
       0.1300      6.5000E-02   0.000       0.000       0.000       0.000       0.000       0.000       0.000    
  33    0.000       0.000       0.000       0.000       0.000       0.000       0.000       0.000       0.000       0.000    
        0.000       0.000       0.000       0.000       0.000      2.6000E-02  2.6000E-02  2.6000E-02  2.6000E-02  2.6000E-02
       2.6000E-02  2.6000E-02  5.2000E-02  5.2000E-02  5.2000E-02  5.2000E-02  5.2000E-02  5.2000E-02  5.2000E-02  5.2000E-02
       5.2000E-02  5.2000E-02  5.2000E-02  5.2000E-02  6.5000E-02  6.5000E-02  6.5000E-02  0.3900      0.3900      0.3900    
       0.3900      0.3900      0.3900      0.3900      0.3900      6.5000E-02  6.5000E-02  6.5000E-02  6.5000E-02  6.5000E-02
       0.1300      0.1300      0.1300      0.1300      0.1300      0.1300      6.5000E-02  6.5000E-02  6.5000E-02  6.5000E-02
       6.5000E-02  6.5000E-02  6.5000E-02  6.5000E-02  6.5000E-02  6.5000E-02  6.5000E-02  0.1300      0.1300      0.3900    
       0.1300      6.5000E-02  6.5000E-02   0.000       0.000       0.000       0.000       0.000       0.000    
  34    0.000       0.000       0.000       0.000       0.000       0.000       0.000       0.000       0.000       0.000    
        0.000       0.000       0.000       0.000      2.6000E-02  2.6000E-02  2.6000E-02  2.6000E-02  2.6000E-02  2.6000E-02
       2.6000E-02  2.6000E-02  5.2000E-02  5.2000E-02  5.2000E-02  5.2000E-02  5.2000E-02  0.1300      5.2000E-02  5.2000E-02
       5.2000E-02  5.2000E-02  5.2000E-02  5.2000E-02  6.5000E-02  6.5000E-02  0.3900      0.3900      0.3900      0.3900    
       0.3900      0.1300      0.1300      0.3900      0.3900      0.3900      0.3900      0.3900      0.3900      0.1300    
       0.1300      0.1300      0.3900      0.3900      0.3900      0.1300      6.5000E-02  6.5000E-02  6.5000E-02  6.5000E-02
       6.5000E-02  6.5000E-02  6.5000E-02  6.5000E-02  6.5000E-02  6.5000E-02  6.5000E-02  0.1300      0.1300      0.1300    
       6.5000E-02  5.2000E-02  5.2000E-02   0.000       0.000       0.000       0.000       0.000       0.000    
  35    0.000       0.000       0.000       0.000       0.000       0.000       0.000       0.000       0.000       0.000    
        0.000       0.000       0.000      2.6000E-02  2.6000E-02  2.6000E-02  2.6000E-02  2.6000E-02  5.2000E-02  5.2000E-02
       5.2000E-02  5.2000E-02  5.2000E-02  5.2000E-02  0.1300      0.1300      0.1300      0.1300      0.1300      0.1300    
       5.2000E-02  5.2000E-02  0.1300      0.1300      0.3900      0.3900      0.3900      0.3900      0.1300      0.1300    
       0.1300      0.1300      0.1300      0.1300      0.3900      0.3900      0.3900      0.3900      0.3900      0.3900    
       0.3900      0.3900      0.3900      0.3900      0.3900      0.3900      6.5000E-02  6.5000E-02  6.5000E-02  6.5000E-02
       6.5000E-02  6.5000E-02  6.5000E-02  6.5000E-02  6.5000E-02  6.5000E-02  6.5000E-02  0.1300      0.1300      6.5000E-02
       6.5000E-02  5.2000E-02  2.6000E-02  2.6000E-02   0.000       0.000       0.000       0.000       0.000    
  36    0.000       0.000       0.000       0.000       0.000       0.000       0.000       0.000       0.000       0.000    
        0.000       0.000       0.000      2.6000E-02  2.6000E-02  2.6000E-02  2.6000E-02  5.2000E-02  5.2000E-02  5.2000E-02
       5.2000E-02  5.2000E-02  5.2000E-02  5.2000E-02  0.1300      0.1300      0.1300      0.1300      0.3900      0.3900    
       0.3900      0.3900      0.3900      0.3900      0.3900      0.3900      0.3900      0.3900      0.1300      0.1300    
       0.1300      0.1300      0.1300      0.1300      0.3900      0.3900      0.3900      0.3900      0.3900      0.3900    
       0.3900      0.3900      0.3900      0.3900      0.3900      0.3900      0.3900      0.1300      0.1300      6.5000E-02
       6.5000E-02  6.5000E-02  0.1300      0.1300      6.5000E-02  6.5000E-02  6.5000E-02  0.1300      0.1300      6.5000E-02
       6.5000E-02  6.5000E-02  2.6000E-02  2.6000E-02  2.6000E-02   0.000       0.000       0.000       0.000    
  37    0.000       0.000       0.000       0.000       0.000       0.000       0.000       0.000       0.000       0.000    
        0.000       0.000      2.6000E-02  2.6000E-02  2.6000E-02  2.6000E-02  5.2000E-02  5.2000E-02  5.2000E-02  5.2000E-02
       5.2000E-02  5.2000E-02  5.2000E-02  0.1300      0.3900      0.3900      0.3900      0.3900      0.3900      0.3900    
       0.3900      0.3900      0.3900      0.3900      0.3900      0.3900      0.3900      0.3900      6.5000E-02  6.5000E-02
       6.5000E-02  6.5000E-02  0.1300      0.3900      0.3900      0.3900      0.3900      0.3900      0.3900      0.3900    
       0.3900      0.3900      0.3900      0.3900      0.3900      0.3900      0.3900      0.3900      0.3900      0.3900    
       0.3900      0.3900      0.1300      0.1300      0.1300      0.1300      0.1300      0.1300      0.1300      0.1300    
       6.5000E-02  6.5000E-02  5.2000E-02  2.6000E-02  2.6000E-02   0.000       0.000       0.000       0.000    
  38    0.000       0.000       0.000       0.000       0.000       0.000       0.000       0.000       0.000       0.000    
       5.2000E-02  5.2000E-02  2.6000E-02  5.2000E-02  5.2000E-02  5.2000E-02  5.2000E-02  5.2000E-02  0.1300      0.1300    
       0.1300      0.1300      0.1300      0.1300      0.1300      0.3900      0.3900      0.3900      0.1300      0.1300    
       0.3900      0.3900      0.3900      0.3900      0.3900      0.3900      0.3900      0.3900      6.5000E-02  6.5000E-02
       6.5000E-02  6.5000E-02  0.1300      0.3900      0.3900      0.3900      6.5000E-02  0.1300      0.1300      0.1300    
       0.1300      0.1300      0.3900      0.3900      0.3900      0.3900      0.3900      0.3900      0.3900      0.3900    
       0.3900      0.3900      0.3900      0.3900      0.3900      0.3900      0.3900      0.3900      0.3900      0.1300    
       0.1300      6.5000E-02  5.2000E-02  2.6000E-02  2.6000E-02  5.2000E-02   0.000       0.000       0.000    
  39    0.000       0.000       0.000       0.000       0.000       0.000       0.000      2.6000E-02  2.6000E-02  5.2000E-02
       5.2000E-02  5.2000E-02  5.2000E-02  5.2000E-02  0.1300      0.1300      0.1300      0.1300      0.1300      0.1300    
       0.1300      0.1300      0.1300      6.5000E-02  6.5000E-02  6.5000E-02  6.5000E-02  6.5000E-02  0.1300      0.3900    
       0.3900      0.3900      0.3900      0.3900      0.3900      0.3900      0.3900      0.3900      6.5000E-02  6.5000E-02
       6.5000E-02  6.5000E-02  6.5000E-02  0.3900      0.3900      6.5000E-02  6.5000E-02  6.5000E-02  0.1300      0.1300    
       0.1300      0.1300      0.1300      0.1300      0.1300      0.1300      0.1300      0.1300      0.1300      0.3900    
       0.3900      0.3900      0.3900      0.3900      0.3900      0.3900      0.3900      0.3900      0.3900      0.3900    
       0.3900      0.3900      0.1300      5.2000E-02  5.2000E-02   1.170       0.000       0.000       0.000    
  40    0.000       0.000       0.000       0.000       0.000       0.000      2.6000E-02  2.6000E-02  2.6000E-02  5.2000E-02
       5.2000E-02  5.2000E-02  0.1300      0.1300      0.1300      0.1300      0.1300      0.1300      5.2000E-02  5.2000E-02
       5.2000E-02  5.2000E-02  6.5000E-02  6.5000E-02  6.5000E-02  6.5000E-02  6.5000E-02  6.5000E-02  0.3900      0.3900    
       0.3900      0.3900      0.3900      0.3900      0.3900      0.3900      0.3900      0.3900      6.5000E-02  6.5000E-02
       6.5000E-02  6.5000E-02  6.5000E-02  0.3900      0.3900      6.5000E-02  6.5000E-02  6.5000E-02  6.5000E-02  0.1300    
       0.1300      0.1300      0.1300      0.1300      0.1300      0.1300      6.5000E-02  6.5000E-02  0.1300      0.3900    
       0.3900      0.1300      0.1300      0.1300      0.1300      0.3900      0.3900      0.3900      0.3900      0.3900    
       0.3900      0.3900      0.3900      0.3900      0.3900       1.170       0.000       0.000       0.000    
  41    0.000       0.000       0.000       0.000       0.000      2.6000E-02  2.6000E-02  2.6000E-02  5.2000E-02  5.2000E-02
       5.2000E-02  5.2000E-02  0.1300      0.1300      5.2000E-02  5.2000E-02  5.2000E-02  5.2000E-02  5.2000E-02  5.2000E-02
       5.2000E-02  6.5000E-02  6.5000E-02  6.5000E-02  6.5000E-02  6.5000E-02  6.5000E-02  6.5000E-02  0.3900      0.3900    
       0.1300      0.1300      0.1300      0.3900      0.3900      0.3900      0.3900      0.3900      6.5000E-02  6.5000E-02
       6.5000E-02  6.5000E-02  6.5000E-02  0.3900      0.3900      0.3900      6.5000E-02  6.5000E-02  6.5000E-02  0.1300    
       0.1300      0.1300      5.2000E-02  5.2000E-02  5.2000E-02  5.2000E-02  6.5000E-02  6.5000E-02  6.5000E-02  0.3900    
       0.3900      0.1300      6.5000E-02  0.1300      0.1300      0.1300      6.5000E-02  6.5000E-02  0.3900      0.3900    
       0.3900      0.3900      0.3900      0.3900      0.3900       0.000       0.000       0.000       0.000    
  42    0.000       0.000       0.000       0.000       0.000      2.6000E-02  2.6000E-02  2.6000E-02  5.2000E-02  5.2000E-02
       5.2000E-02  5.2000E-02  5.2000E-02  5.2000E-02  5.2000E-02  5.2000E-02  5.2000E-02  5.2000E-02  5.2000E-02  6.5000E-02
       6.5000E-02  6.5000E-02  6.5000E-02  0.3900      0.3900      0.3900      0.3900      0.3900      0.3900      0.1300    
       0.1300      0.1300      0.1300      0.1300      0.3900      0.3900      0.3900      0.3900      6.5000E-02  6.5000E-02
       6.5000E-02  6.5000E-02  6.5000E-02  0.1300      0.3900      0.3900      6.5000E-02  6.5000E-02  6.5000E-02  6.5000E-02
       5.2000E-02  5.2000E-02  5.2000E-02  5.2000E-02  5.2000E-02  5.2000E-02  5.2000E-02  6.5000E-02  6.5000E-02  0.3900    
       0.3900      0.1300      6.5000E-02  6.5000E-02  6.5000E-02  6.5000E-02  6.5000E-02  6.5000E-02  6.5000E-02  0.1300    
       0.3900      0.3900      0.3900      0.3900      0.3900       0.000       0.000       0.000       0.000    
  43    0.000       0.000       0.000       0.000       0.000      2.6000E-02  2.6000E-02  2.6000E-02  5.2000E-02  5.2000E-02
       5.2000E-02  5.2000E-02  5.2000E-02  5.2000E-02  5.2000E-02  5.2000E-02  5.2000E-02  5.2000E-02  5.2000E-02  6.5000E-02
       6.5000E-02  6.5000E-02  0.3900      0.3900      0.3900      0.1300      0.1300      0.1300      0.1300      0.1300    
       0.1300      0.1300      0.1300      0.1300      0.3900      0.3900      0.3900      6.5000E-02  6.5000E-02  6.5000E-02
       6.5000E-02  6.5000E-02  6.5000E-02  0.1300      0.3900      0.3900      6.5000E-02  6.5000E-02  6.5000E-02  6.5000E-02
       5.2000E-02  5.2000E-02  5.2000E-02  5.2000E-02  5.2000E-02  5.2000E-02  5.2000E-02  6.5000E-02  6.5000E-02  0.3900    
       0.3900      6.5000E-02  6.5000E-02  6.5000E-02  6.5000E-02  6.5000E-02  6.5000E-02  6.5000E-02  6.5000E-02  0.1300    
       0.3900      0.3900      0.3900      0.3900      0.1300       0.000       0.000       0.000       0.000    
  44    0.000       0.000       0.000       0.000       0.000      2.6000E-02  2.6000E-02  2.6000E-02  2.6000E-02  5.2000E-02
       5.2000E-02  5.2000E-02  5.2000E-02  5.2000E-02  5.2000E-02  6.5000E-02  6.5000E-02  6.5000E-02  6.5000E-02  0.1300    
       0.1300      0.3900      0.3900      0.1300      0.1300      0.1300      0.1300      0.1300      0.1300      0.1300    
       0.1300      0.1300      0.1300      0.1300      0.3900      0.3900      0.3900      6.5000E-02  6.5000E-02  6.5000E-02
       6.5000E-02  6.5000E-02  5.2000E-02  5.2000E-02  0.3900      0.3900      6.5000E-02  6.5000E-02  6.5000E-02  6.5000E-02
       6.5000E-02  5.2000E-02  2.6000E-02  2.6000E-02  2.6000E-02  5.2000E-02  5.2000E-02  6.5000E-02  6.5000E-02  0.1300    
       0.3900      6.5000E-02  6.5000E-02  6.5000E-02  6.5000E-02  6.5000E-02  6.5000E-02  6.5000E-02  6.5000E-02  0.1300    
       0.1300      0.3900      0.3900      0.1300      0.1300       0.000       0.000       0.000       0.000    
  45    0.000       0.000       0.000      2.6000E-02  2.6000E-02  2.6000E-02  2.6000E-02  2.6000E-02  5.2000E-02  5.2000E-02
       5.2000E-02  5.2000E-02  5.2000E-02  5.2000E-02  0.1300      0.1300      0.1300      0.1300      0.1300      0.3900    
       0.3900      0.3900      0.1300      0.1300      0.1300      0.1300      0.1300      0.1300      0.1300      0.1300    
       0.1300      0.1300      0.1300      0.1300      0.3900      0.3900      0.3900      0.1300      5.2000E-02  5.2000E-02
       5.2000E-02  5.2000E-02  5.2000E-02  5.2000E-02  0.3900      0.3900      6.5000E-02  6.5000E-02  2.6000E-02  2.6000E-02
       2.6000E-02  2.6000E-02  2.6000E-02  2.6000E-02  2.6000E-02  5.2000E-02  5.2000E-02  6.5000E-02  6.5000E-02  0.1300    
       0.3900      6.5000E-02  6.5000E-02  6.5000E-02  6.5000E-02  6.5000E-02  6.5000E-02  6.5000E-02  6.5000E-02  0.1300    
       0.1300      0.3900      0.3900      6.5000E-02  5.2000E-02   0.000       0.000       0.000       0.000    
  46    0.000       0.000       0.000      2.6000E-02  2.6000E-02  2.6000E-02  2.6000E-02  2.6000E-02  5.2000E-02  5.2000E-02
       5.2000E-02  0.1300      0.1300      0.1300      0.1300      0.1300      0.3900      0.3900      0.3900      0.3900    
       0.3900      0.1300      0.1300      0.1300      0.1300      0.1300      0.1300      0.1300      0.1300      0.1300    
       0.1300      0.1300      0.1300      0.1300      0.3900      0.3900      0.3900      6.5000E-02  5.2000E-02  5.2000E-02
       5.2000E-02  5.2000E-02  5.2000E-02  5.2000E-02  0.3900      0.3900      6.5000E-02  6.5000E-02  2.6000E-02  2.6000E-02
       2.6000E-02  2.6000E-02  2.6000E-02  2.6000E-02  2.6000E-02  5.2000E-02  5.2000E-02  6.5000E-02  6.5000E-02  0.1300    
       0.1300      6.5000E-02  6.5000E-02  6.5000E-02  6.5000E-02  6.5000E-02  6.5000E-02  6.5000E-02  6.5000E-02  0.1300    
       0.1300      0.3900      0.1300      6.5000E-02  6.5000E-02   0.000       0.000       0.000       0.000    
  47    0.000       0.000       0.000      2.6000E-02  2.6000E-02  2.6000E-02  2.6000E-02  5.2000E-02  5.2000E-02  5.2000E-02
       5.2000E-02  0.1300      0.1300      0.1300      0.3900      0.3900      0.3900      0.1300      0.1300      0.1300    
       0.1300      0.1300      0.1300      0.1300      0.1300      0.1300      0.1300      0.1300      0.1300      6.5000E-02
       0.1300      0.1300      0.1300      0.1300      0.3900      0.3900      0.3900      6.5000E-02  5.2000E-02  5.2000E-02
       5.2000E-02  5.2000E-02  5.2000E-02  5.2000E-02  0.3900      0.3900      6.5000E-02  6.5000E-02  2.6000E-02  2.6000E-02
       2.6000E-02  2.6000E-02  2.6000E-02  2.6000E-02  2.6000E-02  5.2000E-02  5.2000E-02  5.2000E-02  6.5000E-02  6.5000E-02
       0.1300      6.5000E-02  6.5000E-02  6.5000E-02  6.5000E-02  6.5000E-02  6.5000E-02  6.5000E-02  6.5000E-02  0.1300    
       0.1300      0.3900      0.1300      6.5000E-02  6.5000E-02   0.000       0.000       0.000       0.000    
  48    0.000       0.000       0.000      2.6000E-02  2.6000E-02  2.6000E-02  2.6000E-02  5.2000E-02  5.2000E-02  5.2000E-02
       5.2000E-02  0.1300      0.3900      0.3900      0.3900      0.1300      0.1300      0.1300      0.1300      0.1300    
       0.1300      0.1300      0.1300      0.1300      6.5000E-02  6.5000E-02  6.5000E-02  6.5000E-02  6.5000E-02  6.5000E-02
       0.1300      0.1300      0.1300      0.1300      0.3900      0.3900      0.3900      0.3900      5.2000E-02  5.2000E-02
       5.2000E-02  5.2000E-02  5.2000E-02  5.2000E-02  0.3900      0.3900      6.5000E-02  6.5000E-02  6.5000E-02  2.6000E-02
       2.6000E-02  2.6000E-02  2.6000E-02  2.6000E-02  2.6000E-02  2.6000E-02  5.2000E-02  5.2000E-02  6.5000E-02  6.5000E-02
       0.1300      0.1300      6.5000E-02  6.5000E-02  6.5000E-02  6.5000E-02  6.5000E-02  6.5000E-02  6.5000E-02  0.1300    
       0.3900      0.3900      0.1300      6.5000E-02  6.5000E-02  6.5000E-02   0.000       0.000       0.000    
  49    0.000       0.000       0.000      2.6000E-02  2.6000E-02  2.6000E-02  2.6000E-02  5.2000E-02  5.2000E-02  5.2000E-02
       0.1300      0.3900      0.3900      0.1300      0.1300      0.1300      0.1300      0.1300      0.1300      6.5000E-02
       6.5000E-02  6.5000E-02  6.5000E-02  6.5000E-02  6.5000E-02  6.5000E-02  6.5000E-02  6.5000E-02  6.5000E-02  6.5000E-02
       0.1300      0.1300      0.1300      0.1300      0.3900      0.3900      0.3900      0.3900      0.3900      5.2000E-02
       5.2000E-02  5.2000E-02  5.2000E-02  5.2000E-02  5.2000E-02  0.3900      0.3900      0.1300      6.5000E-02  2.6000E-02
       2.6000E-02  2.6000E-02  2.6000E-02  2.6000E-02  2.6000E-02  2.6000E-02  5.2000E-02  5.2000E-02  6.5000E-02  6.5000E-02
       0.1300      0.1300      6.5000E-02  6.5000E-02  6.5000E-02  6.5000E-02  6.5000E-02  6.5000E-02  6.5000E-02  0.1300    
       0.3900      0.3900      0.1300      6.5000E-02  6.5000E-02  6.5000E-02   0.000       0.000       0.000    
  50    0.000       0.000       0.000      2.6000E-02  2.6000E-02  2.6000E-02  5.2000E-02  5.2000E-02  5.2000E-02  5.2000E-02
       0.3900      0.3900      0.3900      0.3900      0.1300      6.5000E-02  6.5000E-02  6.5000E-02  6.5000E-02  6.5000E-02
       6.5000E-02  6.5000E-02  6.5000E-02  6.5000E-02  6.5000E-02  6.5000E-02  6.5000E-02  6.5000E-02  6.5000E-02  6.5000E-02
       6.5000E-02  0.1300      0.1300      0.1300      0.1300      0.3900      0.3900      0.3900      0.3900      0.3900    
       5.2000E-02  5.2000E-02  5.2000E-02  5.2000E-02  5.2000E-02  5.2000E-02  0.3900      0.3900      0.1300      2.6000E-02
       2.6000E-02  2.6000E-02  2.6000E-02  2.6000E-02  2.6000E-02  2.6000E-02  5.2000E-02  5.2000E-02  6.5000E-02  6.5000E-02
       0.1300      0.1300      6.5000E-02  6.5000E-02  6.5000E-02  6.5000E-02  6.5000E-02  6.5000E-02  6.5000E-02  0.1300    
       0.3900      0.3900      0.1300      0.1300      6.5000E-02  6.5000E-02   0.000       0.000       0.000    
  51    0.000       0.000       0.000      2.6000E-02  2.6000E-02  5.2000E-02  5.2000E-02  5.2000E-02  5.2000E-02  0.3900    
       0.3900      0.3900      0.3900      0.1300      0.1300      5.2000E-02  5.2000E-02  6.5000E-02  6.5000E-02  6.5000E-02
       6.5000E-02  6.5000E-02  6.5000E-02  6.5000E-02  6.5000E-02  6.5000E-02  6.5000E-02  6.5000E-02  6.5000E-02  6.5000E-02
       6.5000E-02  0.1300      0.1300      0.1300      0.1300      0.3900      0.3900      0.3900      0.3900      0.3900    
       5.2000E-02  5.2000E-02  5.2000E-02  5.2000E-02  5.2000E-02  5.2000E-02  0.3900      0.3900      0.3900      2.6000E-02
       2.6000E-02  2.6000E-02  2.6000E-02  2.6000E-02  2.6000E-02  2.6000E-02  5.2000E-02  5.2000E-02  6.5000E-02  6.5000E-02
       0.1300      0.1300      0.1300      6.5000E-02  6.5000E-02  6.5000E-02  6.5000E-02  6.5000E-02  6.5000E-02  0.1300    
       0.3900      0.3900      0.1300      0.1300      6.5000E-02  6.5000E-02   0.000       0.000       0.000    
  52    0.000       0.000      2.6000E-02  2.6000E-02  2.6000E-02  5.2000E-02  5.2000E-02  5.2000E-02  5.2000E-02  0.3900    
       0.3900      0.3900      0.1300      5.2000E-02  5.2000E-02  5.2000E-02  5.2000E-02  5.2000E-02  5.2000E-02  6.5000E-02
       6.5000E-02  6.5000E-02  6.5000E-02  6.5000E-02  6.5000E-02  6.5000E-02  6.5000E-02  6.5000E-02  6.5000E-02  6.5000E-02
       6.5000E-02  0.1300      0.1300      0.1300      0.1300      0.3900      0.3900      0.3900      0.3900      0.3900    
       5.2000E-02  5.2000E-02  5.2000E-02  5.2000E-02  5.2000E-02  5.2000E-02  5.2000E-02  0.3900      0.3900      2.6000E-02
       2.6000E-02  2.6000E-02  2.6000E-02  2.6000E-02  2.6000E-02  2.6000E-02  5.2000E-02  5.2000E-02  5.2000E-02  6.5000E-02
       0.1300      0.1300      0.1300      6.5000E-02  6.5000E-02  6.5000E-02  6.5000E-02  6.5000E-02  6.5000E-02  0.1300    
       0.3900      0.3900      0.3900      0.1300      6.5000E-02  6.5000E-02   0.000       0.000       0.000    
  53    0.000       0.000      2.6000E-02  2.6000E-02  2.6000E-02  5.2000E-02  5.2000E-02  5.2000E-02  0.3900      0.3900    
       0.3900      0.1300      5.2000E-02  5.2000E-02  5.2000E-02  5.2000E-02  5.2000E-02  5.2000E-02  5.2000E-02  5.2000E-02
       5.2000E-02  6.5000E-02  6.5000E-02  6.5000E-02  6.5000E-02  6.5000E-02  6.5000E-02  6.5000E-02  6.5000E-02  6.5000E-02
       6.5000E-02  0.1300      0.1300      0.1300      0.1300      0.3900      0.3900      0.3900      0.3900      5.2000E-02
       5.2000E-02  5.2000E-02  5.2000E-02  5.2000E-02  5.2000E-02  5.2000E-02  5.2000E-02  0.3900      0.1300      0.3900    
       2.6000E-02  2.6000E-02  2.6000E-02  2.6000E-02  2.6000E-02  2.6000E-02  2.6000E-02  5.2000E-02  5.2000E-02  6.5000E-02
       0.1300      0.1300      0.1300      6.5000E-02  6.5000E-02  6.5000E-02  6.5000E-02  6.5000E-02  6.5000E-02  0.1300    
       0.1300      0.3900      0.3900      0.1300      6.5000E-02  6.5000E-02  6.5000E-02   0.000       0.000    
  54    0.000       0.000      2.6000E-02  2.6000E-02  2.6000E-02  5.2000E-02  5.2000E-02  5.2000E-02  0.3900      0.3900    
       0.3900      5.2000E-02  5.2000E-02  5.2000E-02  5.2000E-02  5.2000E-02  5.2000E-02  5.2000E-02  5.2000E-02  5.2000E-02
       5.2000E-02  6.5000E-02  6.5000E-02  6.5000E-02  6.5000E-02  6.5000E-02  6.5000E-02  6.5000E-02  6.5000E-02  6.5000E-02
       6.5000E-02  0.1300      0.1300      0.1300      0.1300      0.3900      0.3900      0.3900      0.3900      6.5000E-02
       5.2000E-02  5.2000E-02  5.2000E-02  2.6000E-02  2.6000E-02  2.6000E-02  5.2000E-02  0.1300      0.1300      0.1300    
       2.6000E-02  2.6000E-02  2.6000E-02  2.6000E-02  2.6000E-02  2.6000E-02  2.6000E-02  5.2000E-02  5.2000E-02  6.5000E-02
       0.1300      0.1300      0.1300      6.5000E-02  6.5000E-02  6.5000E-02  6.5000E-02  6.5000E-02  6.5000E-02  0.1300    
       0.1300      0.1300      0.1300      0.1300      6.5000E-02  6.5000E-02  6.5000E-02   0.000       0.000    
  55    0.000      2.6000E-02  2.6000E-02  2.6000E-02  5.2000E-02  5.2000E-02  5.2000E-02  0.1300      0.1300      0.1300    
       0.1300      5.2000E-02  5.2000E-02  5.2000E-02  5.2000E-02  5.2000E-02  5.2000E-02  5.2000E-02  5.2000E-02  5.2000E-02
       5.2000E-02  5.2000E-02  6.5000E-02  6.5000E-02  6.5000E-02  6.5000E-02  6.5000E-02  6.5000E-02  6.5000E-02  6.5000E-02
       6.5000E-02  6.5000E-02  0.1300      0.1300      0.1300      0.3900      0.3900      0.3900      0.3900      6.5000E-02
       5.2000E-02  2.6000E-02  2.6000E-02  2.6000E-02  2.6000E-02  2.6000E-02  5.2000E-02  0.1300      0.1300      0.1300    
       2.6000E-02  2.6000E-02  2.6000E-02  2.6000E-02  2.6000E-02  2.6000E-02  2.6000E-02  5.2000E-02  5.2000E-02  6.5000E-02
       0.1300      0.1300      0.1300      6.5000E-02  6.5000E-02  6.5000E-02  6.5000E-02  6.5000E-02  6.5000E-02  0.1300    
       0.1300      0.1300      0.1300      0.1300      0.1300      6.5000E-02  6.5000E-02   0.000       0.000    
  56    0.000      2.6000E-02  2.6000E-02  5.2000E-02  5.2000E-02  5.2000E-02  0.1300      0.1300      0.1300      0.1300    
       0.1300      5.2000E-02  5.2000E-02  5.2000E-02  5.2000E-02  5.2000E-02  5.2000E-02  5.2000E-02  5.2000E-02  5.2000E-02
       5.2000E-02  5.2000E-02  5.2000E-02  6.5000E-02  6.5000E-02  6.5000E-02  6.5000E-02  6.5000E-02  6.5000E-02  6.5000E-02
       6.5000E-02  6.5000E-02  0.1300      0.1300      0.1300      0.3900      0.3900      0.3900      0.3900      6.5000E-02
       5.2000E-02  2.6000E-02  2.6000E-02  2.6000E-02  2.6000E-02  2.6000E-02  5.2000E-02  0.1300      0.1300      0.1300    
       2.6000E-02  2.6000E-02  2.6000E-02  2.6000E-02  2.6000E-02  2.6000E-02  2.6000E-02  5.2000E-02  5.2000E-02  6.5000E-02
       0.1300      0.1300      0.1300      6.5000E-02  6.5000E-02  5.2000E-02  5.2000E-02  5.2000E-02  6.5000E-02  6.5000E-02
       0.1300      0.1300      0.1300      0.1300      0.1300      6.5000E-02  6.5000E-02   0.000       0.000    
  57   2.6000E-02  2.6000E-02  5.2000E-02  5.2000E-02  5.2000E-02  0.1300      0.1300      0.1300      0.1300      5.2000E-02
       5.2000E-02  5.2000E-02  5.2000E-02  5.2000E-02  5.2000E-02  5.2000E-02  5.2000E-02  5.2000E-02  5.2000E-02  5.2000E-02
       5.2000E-02  5.2000E-02  5.2000E-02  5.2000E-02  5.2000E-02  5.2000E-02  6.5000E-02  6.5000E-02  6.5000E-02  6.5000E-02
       6.5000E-02  6.5000E-02  0.1300      0.1300      0.1300      0.3900      0.3900      0.3900      6.5000E-02  6.5000E-02
       5.2000E-02  2.6000E-02  2.6000E-02  2.6000E-02  2.6000E-02  2.6000E-02  5.2000E-02  0.1300      0.1300      0.1300    
       2.6000E-02  2.6000E-02  2.6000E-02  2.6000E-02  2.6000E-02  2.6000E-02  2.6000E-02  5.2000E-02  5.2000E-02  5.2000E-02
       6.5000E-02  0.1300      0.1300      6.5000E-02  6.5000E-02  5.2000E-02  5.2000E-02  5.2000E-02  6.5000E-02  6.5000E-02
       0.1300      0.1300      6.5000E-02  6.5000E-02  6.5000E-02  6.5000E-02  6.5000E-02   0.000       0.000    
  58   2.6000E-02  2.6000E-02  5.2000E-02  5.2000E-02  5.2000E-02  0.1300      5.2000E-02  5.2000E-02  5.2000E-02  5.2000E-02
       5.2000E-02  5.2000E-02  5.2000E-02  5.2000E-02  5.2000E-02  5.2000E-02  2.6000E-02  5.2000E-02  5.2000E-02  5.2000E-02
       5.2000E-02  5.2000E-02  5.2000E-02  5.2000E-02  5.2000E-02  5.2000E-02  5.2000E-02  6.5000E-02  6.5000E-02  6.5000E-02
       6.5000E-02  6.5000E-02  0.1300      0.1300      0.1300      0.3900      0.3900      0.3900      6.5000E-02  6.5000E-02
       5.2000E-02  2.6000E-02  2.6000E-02  2.6000E-02  2.6000E-02  2.6000E-02  2.6000E-02  5.2000E-02  0.1300      0.1300    
       0.1300      6.5000E-02  5.2000E-02  2.6000E-02  2.6000E-02  2.6000E-02  2.6000E-02  5.2000E-02  5.2000E-02  5.2000E-02
       6.5000E-02  0.1300      6.5000E-02  6.5000E-02  6.5000E-02  5.2000E-02  5.2000E-02  5.2000E-02  6.5000E-02  0.1300    
       0.1300      0.1300      6.5000E-02  6.5000E-02  6.5000E-02  6.5000E-02  6.5000E-02   0.000       0.000    
  59   2.6000E-02  2.6000E-02  5.2000E-02  5.2000E-02  5.2000E-02  5.2000E-02  5.2000E-02  5.2000E-02  5.2000E-02  5.2000E-02
       5.2000E-02  2.6000E-02  2.6000E-02  2.6000E-02  2.6000E-02  2.6000E-02  2.6000E-02  5.2000E-02  5.2000E-02  5.2000E-02
       5.2000E-02  5.2000E-02  5.2000E-02  5.2000E-02  5.2000E-02  5.2000E-02  5.2000E-02  5.2000E-02  6.5000E-02  6.5000E-02
       6.5000E-02  6.5000E-02  0.1300      0.1300      0.1300      0.1300      0.3900      0.3900      0.3900      6.5000E-02
       5.2000E-02  5.2000E-02  2.6000E-02  2.6000E-02  2.6000E-02  2.6000E-02  2.6000E-02  5.2000E-02  0.1300      5.2000E-02
       0.1300      6.5000E-02  5.2000E-02  2.6000E-02  2.6000E-02  2.6000E-02  2.6000E-02  5.2000E-02  5.2000E-02  5.2000E-02
       6.5000E-02  6.5000E-02  6.5000E-02  5.2000E-02  5.2000E-02  5.2000E-02  5.2000E-02  5.2000E-02  6.5000E-02  0.1300    
       0.1300      0.1300      6.5000E-02  6.5000E-02  6.5000E-02  6.5000E-02  6.5000E-02  6.5000E-02   0.000    
  60    0.000      2.6000E-02  2.6000E-02  5.2000E-02  5.2000E-02  5.2000E-02  2.6000E-02  2.6000E-02  2.6000E-02  2.6000E-02
       2.6000E-02  2.6000E-02  2.6000E-02   0.000       0.000       0.000      2.6000E-02  2.6000E-02  5.2000E-02  5.2000E-02
       5.2000E-02  5.2000E-02  5.2000E-02  5.2000E-02  5.2000E-02  5.2000E-02  5.2000E-02  5.2000E-02  5.2000E-02  6.5000E-02
       6.5000E-02  6.5000E-02  6.5000E-02  0.1300      0.1300      0.1300      0.3900      0.3900      0.3900      6.5000E-02
       5.2000E-02  5.2000E-02  2.6000E-02  2.6000E-02  2.6000E-02  2.6000E-02  2.6000E-02  5.2000E-02  5.2000E-02  5.2000E-02
       0.1300      6.5000E-02  5.2000E-02  2.6000E-02  5.2000E-02  5.2000E-02  5.2000E-02  5.2000E-02  5.2000E-02  6.5000E-02
       6.5000E-02  6.5000E-02  5.2000E-02  5.2000E-02  5.2000E-02  5.2000E-02  5.2000E-02  5.2000E-02  6.5000E-02  0.1300    
       0.1300      6.5000E-02  6.5000E-02  6.5000E-02  6.5000E-02  6.5000E-02  6.5000E-02  6.5000E-02  6.5000E-02
  61    0.000       0.000      2.6000E-02  2.6000E-02  2.6000E-02  2.6000E-02  2.6000E-02  2.6000E-02  2.6000E-02  2.6000E-02
       2.6000E-02   0.000       0.000       0.000       0.000       0.000       0.000      2.6000E-02  2.6000E-02  5.2000E-02
       5.2000E-02  5.2000E-02  5.2000E-02  5.2000E-02  5.2000E-02  5.2000E-02  5.2000E-02  5.2000E-02  5.2000E-02  5.2000E-02
       6.5000E-02  6.5000E-02  6.5000E-02  0.1300      0.1300      0.1300      0.3900      0.3900      0.3900      6.5000E-02
       5.2000E-02  5.2000E-02  2.6000E-02  2.6000E-02  2.6000E-02  2.6000E-02  2.6000E-02  2.6000E-02  5.2000E-02  5.2000E-02
       0.1300      0.1300      5.2000E-02  5.2000E-02  5.2000E-02  5.2000E-02  5.2000E-02  5.2000E-02  5.2000E-02  5.2000E-02
       5.2000E-02  5.2000E-02  5.2000E-02  5.2000E-02  5.2000E-02  5.2000E-02  5.2000E-02  5.2000E-02  6.5000E-02  0.1300    
       0.1300      6.5000E-02  6.5000E-02  6.5000E-02  6.5000E-02  6.5000E-02  6.5000E-02  6.5000E-02  6.5000E-02
  62    0.000       0.000       0.000      2.6000E-02   0.000       0.000       0.000       0.000       0.000       0.000    
        0.000       0.000       0.000       0.000       0.000       0.000       0.000       0.000       0.000      2.6000E-02
       5.2000E-02  5.2000E-02  5.2000E-02  5.2000E-02  5.2000E-02  5.2000E-02  5.2000E-02  5.2000E-02  5.2000E-02  5.2000E-02
       6.5000E-02  6.5000E-02  6.5000E-02  0.1300      0.1300      0.1300      0.3900      0.3900      0.1300      6.5000E-02
       5.2000E-02  5.2000E-02  2.6000E-02  2.6000E-02  2.6000E-02  2.6000E-02  2.6000E-02  2.6000E-02  5.2000E-02  5.2000E-02
       5.2000E-02  5.2000E-02  0.1300      5.2000E-02  5.2000E-02  5.2000E-02  5.2000E-02  5.2000E-02  5.2000E-02  5.2000E-02
       5.2000E-02  5.2000E-02  5.2000E-02  5.2000E-02  5.2000E-02  5.2000E-02  5.2000E-02  5.2000E-02  6.5000E-02  0.1300    
       6.5000E-02  6.5000E-02  6.5000E-02  6.5000E-02  6.5000E-02  6.5000E-02  6.5000E-02  5.2000E-02  5.2000E-02
  63    0.000       0.000       0.000       0.000       0.000       0.000       0.000       0.000       0.000       0.000    
        0.000       0.000       0.000       0.000       0.000       0.000       0.000       0.000       0.000      2.6000E-02
       2.6000E-02  2.6000E-02  5.2000E-02  5.2000E-02  5.2000E-02  5.2000E-02  5.2000E-02  5.2000E-02  5.2000E-02  5.2000E-02
       5.2000E-02  6.5000E-02  6.5000E-02  0.1300      0.1300      0.1300      0.3900      0.3900      0.1300      6.5000E-02
       6.5000E-02  5.2000E-02  5.2000E-02  2.6000E-02  2.6000E-02  2.6000E-02  2.6000E-02  2.6000E-02  2.6000E-02  2.6000E-02
       5.2000E-02  5.2000E-02  0.1300      0.1300      5.2000E-02  5.2000E-02  5.2000E-02  5.2000E-02  5.2000E-02  5.2000E-02
       5.2000E-02  5.2000E-02  5.2000E-02  5.2000E-02  5.2000E-02  5.2000E-02  5.2000E-02  5.2000E-02  6.5000E-02  6.5000E-02
       6.5000E-02  6.5000E-02  6.5000E-02  6.5000E-02  6.5000E-02  6.5000E-02  6.5000E-02  5.2000E-02  5.2000E-02
  64    0.000       0.000       0.000       0.000       0.000       0.000       0.000       0.000       0.000       0.000    
        0.000       0.000       0.000       0.000       0.000       0.000       0.000       0.000       0.000       0.000    
        0.000       0.000       0.000       0.000      5.2000E-02  5.2000E-02  5.2000E-02  5.2000E-02  5.2000E-02  5.2000E-02
       5.2000E-02  5.2000E-02  6.5000E-02  6.5000E-02  0.1300      0.1300      0.1300      0.3900      0.3900      0.1300    
       5.2000E-02  5.2000E-02  5.2000E-02  2.6000E-02  2.6000E-02  2.6000E-02  2.6000E-02  2.6000E-02  2.6000E-02  2.6000E-02
       5.2000E-02  5.2000E-02  6.5000E-02  0.1300      5.2000E-02  5.2000E-02  5.2000E-02  5.2000E-02  5.2000E-02  5.2000E-02
       5.2000E-02  5.2000E-02  5.2000E-02  5.2000E-02  5.2000E-02  5.2000E-02  5.2000E-02  6.5000E-02  6.5000E-02  6.5000E-02
       6.5000E-02  6.5000E-02  6.5000E-02  6.5000E-02  6.5000E-02  6.5000E-02  5.2000E-02  5.2000E-02  5.2000E-02
  65    0.000       0.000       0.000       0.000       0.000       0.000       0.000       0.000       0.000       0.000    
        0.000       0.000       0.000       0.000       0.000       0.000       0.000       0.000       0.000       0.000    
        0.000       0.000       0.000       0.000       0.000       0.000       0.000       0.000       0.000       0.000    
        0.000       0.000       0.000      6.5000E-02  0.1300      0.1300      0.1300      0.1300      0.1300      0.1300    
       5.2000E-02  5.2000E-02  5.2000E-02  2.6000E-02  2.6000E-02   0.000       0.000       0.000       0.000      2.6000E-02
       2.6000E-02  5.2000E-02  6.5000E-02  6.5000E-02  5.2000E-02  5.2000E-02  5.2000E-02  5.2000E-02  5.2000E-02  5.2000E-02
       5.2000E-02  5.2000E-02  5.2000E-02  5.2000E-02  5.2000E-02  5.2000E-02  5.2000E-02  6.5000E-02  6.5000E-02  6.5000E-02
       6.5000E-02  6.5000E-02  6.5000E-02  6.5000E-02  6.5000E-02  6.5000E-02  6.5000E-02  5.2000E-02  5.2000E-02
  66    0.000       0.000       0.000       0.000       0.000       0.000       0.000       0.000       0.000       0.000    
        0.000       0.000       0.000       0.000       0.000       0.000       0.000       0.000       0.000       0.000    
        0.000       0.000       0.000       0.000       0.000       0.000       0.000       0.000       0.000       0.000    
        0.000       0.000       0.000       0.000       0.000      6.5000E-02  6.5000E-02   0.000       0.000       0.000    
        0.000       0.000       0.000       0.000       0.000       0.000       0.000       0.000       0.000       0.000    
       2.6000E-02  5.2000E-02  6.5000E-02  6.5000E-02  6.5000E-02  5.2000E-02  5.2000E-02  5.2000E-02  5.2000E-02  5.2000E-02
       5.2000E-02  5.2000E-02  5.2000E-02  5.2000E-02  5.2000E-02  5.2000E-02  5.2000E-02  5.2000E-02  6.5000E-02  6.5000E-02
       6.5000E-02  6.5000E-02  6.5000E-02  6.5000E-02  6.5000E-02  6.5000E-02  6.5000E-02  5.2000E-02  5.2000E-02
  67    0.000       0.000       0.000       0.000       0.000       0.000       0.000       0.000       0.000       0.000    
        0.000       0.000       0.000       0.000       0.000       0.000       0.000       0.000       0.000       0.000    
        0.000       0.000       0.000       0.000       0.000       0.000       0.000       0.000       0.000       0.000    
        0.000       0.000       0.000       0.000       0.000       0.000       0.000       0.000       0.000       0.000    
        0.000       0.000       0.000       0.000       0.000       0.000       0.000       0.000       0.000       0.000    
        0.000       0.000      2.6000E-02  6.5000E-02  5.2000E-02  5.2000E-02  5.2000E-02  5.2000E-02  5.2000E-02  2.6000E-02
       2.6000E-02  2.6000E-02  2.6000E-02  2.6000E-02  5.2000E-02  5.2000E-02  5.2000E-02  5.2000E-02  6.5000E-02  6.5000E-02
       6.5000E-02   0.000       0.000       0.000       0.000       0.000       0.000       0.000       0.000    
  68    0.000       0.000       0.000       0.000       0.000       0.000       0.000       0.000       0.000       0.000    
        0.000       0.000       0.000       0.000       0.000       0.000       0.000       0.000       0.000       0.000    
        0.000       0.000       0.000       0.000       0.000       0.000       0.000       0.000       0.000       0.000    
        0.000       0.000       0.000       0.000       0.000       0.000       0.000       0.000       0.000       0.000    
        0.000       0.000       0.000       0.000       0.000       0.000       0.000       0.000       0.000       0.000    
        0.000       0.000       0.000      2.6000E-02  5.2000E-02  5.2000E-02  5.2000E-02  2.6000E-02  2.6000E-02  2.6000E-02
       2.6000E-02  2.6000E-02  2.6000E-02  2.6000E-02  5.2000E-02  5.2000E-02  5.2000E-02  6.5000E-02   0.000       0.000    
        0.000       0.000       0.000       0.000       0.000       0.000       0.000       0.000       0.000    
  69    0.000       0.000       0.000       0.000       0.000       0.000       0.000       0.000       0.000       0.000    
        0.000       0.000       0.000       0.000       0.000       0.000       0.000       0.000       0.000       0.000    
        0.000       0.000       0.000       0.000       0.000       0.000       0.000       0.000       0.000       0.000    
        0.000       0.000       0.000       0.000       0.000       0.000       0.000       0.000       0.000       0.000    
        0.000       0.000       0.000       0.000       0.000       0.000       0.000       0.000       0.000       0.000    
        0.000       0.000       0.000       0.000       0.000       0.000       0.000       0.000       0.000       0.000    
       2.6000E-02  2.6000E-02  2.6000E-02  2.6000E-02  6.5000E-02  6.5000E-02  6.5000E-02   0.000       0.000       0.000    
        0.000       0.000       0.000       0.000       0.000       0.000       0.000       0.000       0.000    
  70    0.000       0.000       0.000       0.000       0.000       0.000       0.000       0.000       0.000       0.000    
        0.000       0.000       0.000       0.000       0.000       0.000       0.000       0.000       0.000       0.000    
        0.000       0.000       0.000       0.000       0.000       0.000       0.000       0.000       0.000       0.000    
        0.000       0.000       0.000       0.000       0.000       0.000       0.000       0.000       0.000       0.000    
        0.000       0.000       0.000       0.000       0.000       0.000       0.000       0.000       0.000       0.000    
        0.000       0.000       0.000       0.000       0.000       0.000       0.000       0.000       0.000       0.000    
        0.000      2.6000E-02  2.6000E-02  2.6000E-02  6.5000E-02  6.5000E-02   0.000       0.000       0.000       0.000    
        0.000       0.000       0.000       0.000       0.000       0.000       0.000       0.000       0.000    
  71    0.000       0.000       0.000       0.000       0.000       0.000       0.000       0.000       0.000       0.000    
        0.000       0.000       0.000       0.000       0.000       0.000       0.000       0.000       0.000       0.000    
        0.000       0.000       0.000       0.000       0.000       0.000       0.000       0.000       0.000       0.000    
        0.000       0.000       0.000       0.000       0.000       0.000       0.000       0.000       0.000       0.000    
        0.000       0.000       0.000       0.000       0.000       0.000       0.000       0.000       0.000       0.000    
        0.000       0.000       0.000       0.000       0.000       0.000       0.000       0.000       0.000       0.000    
        0.000       0.000      2.6000E-02  5.2000E-02   0.000       0.000       0.000       0.000       0.000       0.000    
        0.000       0.000       0.000       0.000       0.000       0.000       0.000       0.000       0.000    

         SPECIFIC STORAGE =  2.000000E-06 FOR LAYER   2



                     SPECIFIC YIELD FOR LAYER   2
 READING ON UNIT   12 WITH FORMAT: (FREE)              

            1           2           3           4           5           6           7           8           9          10
           11          12          13          14          15          16          17          18          19          20
           21          22          23          24          25          26          27          28          29          30
           31          32          33          34          35          36          37          38          39          40
           41          42          43          44          45          46          47          48          49          50
           51          52          53          54          55          56          57          58          59          60
           61          62          63          64          65          66          67          68          69          70
           71          72          73          74          75          76          77          78          79
 ........................................................................................................................
   1    0.000       0.000       0.000       0.000       0.000       0.000       0.000       0.000       0.000       0.000    
        0.000       0.000       0.000       0.000       0.000       0.000       0.000       0.000       0.000       0.000    
        0.000       0.000       0.000       0.000       0.000       0.000       0.000       0.000       0.000       0.000    
        0.000       0.000       0.000       0.000       0.000       0.000       0.000       0.000       0.000       0.000    
        0.000       0.000       0.000       0.000       0.000       0.000       0.000       0.000       0.000       0.000    
        0.000      8.0000E-02  8.0000E-02   0.000       0.000       0.000       0.000       0.000       0.000       0.000    
        0.000       0.000       0.000       0.000       0.000       0.000       0.000       0.000       0.000       0.000    
        0.000       0.000       0.000       0.000       0.000       0.000       0.000       0.000       0.000    
   2    0.000       0.000       0.000       0.000       0.000       0.000       0.000       0.000       0.000       0.000    
        0.000       0.000       0.000       0.000       0.000       0.000       0.000       0.000       0.000       0.000    
        0.000       0.000       0.000       0.000       0.000       0.000       0.000       0.000       0.000       0.000    
        0.000       0.000       0.000       0.000       0.000       0.000       0.000       0.000       0.000       0.000    
        0.000       0.000       0.000       0.000       0.000       0.000       0.000       0.000       0.000       0.000    
        0.000      8.0000E-02  9.0000E-02  9.0000E-02   0.000       0.000       0.000       0.000       0.000       0.000    
        0.000       0.000       0.000       0.000       0.000       0.000       0.000       0.000       0.000       0.000    
        0.000       0.000       0.000       0.000       0.000       0.000       0.000       0.000       0.000    
   3    0.000       0.000       0.000       0.000       0.000       0.000       0.000       0.000       0.000       0.000    
        0.000       0.000       0.000       0.000       0.000       0.000       0.000       0.000       0.000       0.000    
        0.000       0.000       0.000       0.000       0.000       0.000       0.000       0.000       0.000       0.000    
        0.000       0.000       0.000       0.000       0.000       0.000       0.000       0.000       0.000       0.000    
        0.000       0.000       0.000       0.000       0.000       0.000       0.000       0.000       0.000       0.000    
        0.000      8.0000E-02  9.0000E-02  0.1500       0.000       0.000       0.000       0.000       0.000       0.000    
        0.000       0.000       0.000       0.000       0.000       0.000       0.000       0.000       0.000       0.000    
        0.000       0.000       0.000       0.000       0.000       0.000       0.000       0.000       0.000    
   4    0.000       0.000       0.000       0.000       0.000       0.000       0.000       0.000       0.000       0.000    
        0.000       0.000       0.000       0.000       0.000       0.000       0.000       0.000       0.000       0.000    
        0.000       0.000       0.000       0.000       0.000       0.000       0.000       0.000       0.000       0.000    
        0.000       0.000       0.000       0.000       0.000       0.000       0.000       0.000       0.000       0.000    
        0.000       0.000       0.000       0.000       0.000       0.000       0.000       0.000       0.000       0.000    
        0.000      9.0000E-02  9.0000E-02  0.1500      0.1500       0.000       0.000       0.000       0.000       0.000    
        0.000       0.000       0.000       0.000       0.000       0.000       0.000       0.000       0.000       0.000    
        0.000       0.000       0.000       0.000       0.000       0.000       0.000       0.000       0.000    
   5    0.000       0.000       0.000       0.000       0.000       0.000       0.000       0.000       0.000       0.000    
        0.000       0.000       0.000       0.000       0.000       0.000       0.000       0.000       0.000       0.000    
        0.000       0.000       0.000       0.000       0.000       0.000       0.000       0.000       0.000       0.000    
        0.000       0.000       0.000       0.000       0.000       0.000       0.000       0.000       0.000       0.000    
        0.000       0.000       0.000       0.000       0.000       0.000       0.000       0.000       0.000       0.000    
        0.000      9.0000E-02  9.0000E-02  9.0000E-02  0.1500      9.0000E-02  9.0000E-02   0.000       0.000       0.000    
        0.000       0.000       0.000       0.000       0.000       0.000       0.000       0.000       0.000       0.000    
        0.000       0.000       0.000       0.000       0.000       0.000       0.000       0.000       0.000    
   6    0.000       0.000       0.000       0.000       0.000       0.000       0.000       0.000       0.000       0.000    
        0.000       0.000       0.000       0.000       0.000       0.000       0.000       0.000       0.000       0.000    
        0.000       0.000       0.000       0.000       0.000       0.000       0.000       0.000       0.000       0.000    
        0.000       0.000       0.000       0.000       0.000       0.000       0.000       0.000       0.000       0.000    
        0.000       0.000       0.000       0.000       0.000       0.000       0.000       0.000       0.000       0.000    
        0.000      9.0000E-02  9.0000E-02  9.0000E-02  0.1500      0.1500      9.0000E-02  9.0000E-02  9.0000E-02   0.000    
        0.000       0.000       0.000      9.0000E-02  9.0000E-02   0.000       0.000       0.000       0.000       0.000    
        0.000       0.000       0.000       0.000       0.000       0.000       0.000       0.000       0.000    
   7    0.000       0.000       0.000       0.000       0.000       0.000       0.000       0.000       0.000       0.000    
        0.000       0.000       0.000       0.000       0.000       0.000       0.000       0.000       0.000       0.000    
        0.000       0.000       0.000       0.000       0.000       0.000       0.000       0.000       0.000       0.000    
        0.000       0.000       0.000       0.000       0.000       0.000       0.000       0.000       0.000       0.000    
        0.000       0.000       0.000       0.000       0.000       0.000       0.000       0.000       0.000       0.000    
        0.000      9.0000E-02  9.0000E-02  9.0000E-02  0.1500      0.1500      0.1500      9.0000E-02  9.0000E-02  9.0000E-02
       9.0000E-02  9.0000E-02  9.0000E-02  9.0000E-02  9.0000E-02  9.0000E-02   0.000       0.000       0.000       0.000    
        0.000       0.000       0.000       0.000       0.000       0.000       0.000       0.000       0.000    
   8    0.000       0.000       0.000       0.000       0.000       0.000       0.000       0.000       0.000       0.000    
        0.000       0.000       0.000       0.000       0.000       0.000       0.000       0.000       0.000       0.000    
        0.000       0.000       0.000       0.000       0.000       0.000       0.000       0.000       0.000       0.000    
        0.000       0.000       0.000       0.000       0.000       0.000       0.000       0.000       0.000       0.000    
        0.000       0.000       0.000       0.000       0.000       0.000       0.000       0.000       0.000       0.000    
        0.000      9.0000E-02  9.0000E-02  9.0000E-02  0.1500      0.1500      0.1500      9.0000E-02  9.0000E-02  9.0000E-02
       9.0000E-02  9.0000E-02  9.0000E-02  9.0000E-02  9.0000E-02  9.0000E-02  9.0000E-02  9.0000E-02   0.000       0.000    
        0.000       0.000       0.000       0.000       0.000       0.000       0.000       0.000       0.000    
   9    0.000       0.000       0.000       0.000       0.000       0.000       0.000       0.000       0.000       0.000    
        0.000       0.000       0.000       0.000       0.000       0.000       0.000       0.000       0.000       0.000    
        0.000       0.000       0.000       0.000       0.000       0.000       0.000       0.000       0.000       0.000    
        0.000       0.000       0.000       0.000       0.000       0.000       0.000       0.000       0.000       0.000    
        0.000       0.000       0.000       0.000       0.000       0.000       0.000       0.000       0.000       0.000    
       8.0000E-02  9.0000E-02  9.0000E-02  9.0000E-02  0.1500      0.1500      0.1500      9.0000E-02  9.0000E-02  9.0000E-02
       9.0000E-02  9.0000E-02  9.0000E-02  9.0000E-02  9.0000E-02  9.0000E-02  9.0000E-02  9.0000E-02  9.0000E-02   0.000    
        0.000       0.000       0.000       0.000       0.000       0.000       0.000       0.000       0.000    
  10    0.000       0.000       0.000       0.000       0.000       0.000       0.000       0.000       0.000       0.000    
        0.000       0.000       0.000       0.000       0.000       0.000       0.000       0.000       0.000       0.000    
        0.000       0.000       0.000       0.000       0.000       0.000       0.000       0.000       0.000       0.000    
        0.000       0.000       0.000       0.000       0.000       0.000       0.000       0.000       0.000       0.000    
        0.000       0.000       0.000       0.000       0.000       0.000       0.000       0.000       0.000      9.0000E-02
       9.0000E-02  9.0000E-02  9.0000E-02  9.0000E-02  9.0000E-02  0.1500      0.1500      0.1500      9.0000E-02  9.0000E-02
       9.0000E-02  9.0000E-02  9.0000E-02  9.0000E-02  9.0000E-02  9.0000E-02  9.0000E-02  9.0000E-02  9.0000E-02  9.0000E-02
        0.000       0.000       0.000       0.000       0.000       0.000       0.000       0.000       0.000    
  11    0.000       0.000       0.000       0.000       0.000       0.000       0.000       0.000       0.000       0.000    
        0.000       0.000       0.000       0.000       0.000       0.000       0.000       0.000       0.000       0.000    
        0.000       0.000       0.000       0.000       0.000       0.000       0.000       0.000       0.000       0.000    
        0.000       0.000       0.000       0.000       0.000       0.000       0.000       0.000       0.000       0.000    
        0.000       0.000       0.000       0.000       0.000       0.000       0.000       0.000      9.0000E-02  9.0000E-02
       9.0000E-02  9.0000E-02  9.0000E-02  9.0000E-02  9.0000E-02  0.1500      0.1500      0.1500      9.0000E-02  9.0000E-02
       9.0000E-02  9.0000E-02  9.0000E-02  9.0000E-02  9.0000E-02  9.0000E-02  9.0000E-02  9.0000E-02  9.0000E-02  9.0000E-02
       9.0000E-02   0.000       0.000       0.000       0.000       0.000       0.000       0.000       0.000    
  12    0.000       0.000       0.000       0.000       0.000       0.000       0.000       0.000       0.000       0.000    
        0.000       0.000       0.000       0.000       0.000       0.000       0.000       0.000       0.000       0.000    
        0.000       0.000       0.000       0.000       0.000       0.000       0.000       0.000       0.000       0.000    
        0.000       0.000       0.000       0.000       0.000       0.000       0.000       0.000       0.000       0.000    
        0.000      8.0000E-02  8.0000E-02   0.000       0.000       0.000       0.000      8.0000E-02  9.0000E-02  9.0000E-02
       9.0000E-02  9.0000E-02  9.0000E-02  9.0000E-02  9.0000E-02  0.1500      0.1500      0.1500      9.0000E-02  9.0000E-02
       9.0000E-02  9.0000E-02  9.0000E-02  9.0000E-02  9.0000E-02  9.0000E-02  9.0000E-02  9.0000E-02  9.0000E-02  9.0000E-02
       9.0000E-02   0.000       0.000       0.000       0.000       0.000       0.000       0.000       0.000    
  13    0.000       0.000       0.000       0.000       0.000       0.000       0.000       0.000       0.000       0.000    
        0.000       0.000       0.000       0.000       0.000       0.000       0.000       0.000       0.000       0.000    
        0.000       0.000       0.000       0.000       0.000       0.000       0.000       0.000       0.000       0.000    
        0.000       0.000       0.000       0.000       0.000       0.000       0.000       0.000      8.0000E-02  8.0000E-02
       8.0000E-02  8.0000E-02  8.0000E-02  8.0000E-02  8.0000E-02  8.0000E-02  8.0000E-02  8.0000E-02  9.0000E-02  9.0000E-02
       9.0000E-02  9.0000E-02  9.0000E-02  9.0000E-02  9.0000E-02  0.1500      0.1500      0.1500      9.0000E-02  9.0000E-02
       9.0000E-02  9.0000E-02  9.0000E-02  9.0000E-02  9.0000E-02  9.0000E-02  9.0000E-02  9.0000E-02  9.0000E-02  9.0000E-02
       9.0000E-02  9.0000E-02   0.000       0.000       0.000       0.000       0.000       0.000       0.000    
  14    0.000       0.000       0.000       0.000       0.000       0.000       0.000       0.000       0.000       0.000    
        0.000       0.000       0.000       0.000       0.000       0.000       0.000       0.000       0.000       0.000    
        0.000       0.000       0.000       0.000       0.000       0.000       0.000       0.000       0.000       0.000    
        0.000       0.000       0.000       0.000       0.000       0.000       0.000       0.000      8.0000E-02  8.0000E-02
       8.0000E-02  8.0000E-02  8.0000E-02  8.0000E-02  9.0000E-02  9.0000E-02  9.0000E-02  9.0000E-02  9.0000E-02  9.0000E-02
       9.0000E-02  9.0000E-02  9.0000E-02  9.0000E-02  9.0000E-02  0.1500      0.1500      0.1500      0.1500      0.1500    
       9.0000E-02  9.0000E-02  9.0000E-02  9.0000E-02  9.0000E-02  9.0000E-02  9.0000E-02  0.1500      9.0000E-02  9.0000E-02
       9.0000E-02  9.0000E-02  9.0000E-02   0.000       0.000       0.000       0.000       0.000       0.000    
  15    0.000       0.000       0.000       0.000       0.000       0.000       0.000       0.000       0.000       0.000    
        0.000       0.000       0.000       0.000       0.000       0.000       0.000       0.000       0.000       0.000    
        0.000       0.000       0.000       0.000       0.000       0.000       0.000       0.000       0.000       0.000    
        0.000       0.000       0.000       0.000       0.000       0.000       0.000      8.0000E-02  8.0000E-02  8.0000E-02
       9.0000E-02  9.0000E-02  9.0000E-02  9.0000E-02  9.0000E-02  9.0000E-02  9.0000E-02  9.0000E-02  9.0000E-02  9.0000E-02
       9.0000E-02  9.0000E-02  9.0000E-02  9.0000E-02  9.0000E-02  9.0000E-02  0.1500      0.1500      0.1500      0.1500    
       0.1500      9.0000E-02  9.0000E-02  0.1500      0.1500      0.1500      0.1500      0.1500      0.1500      9.0000E-02
       9.0000E-02  9.0000E-02  9.0000E-02   0.000       0.000       0.000       0.000       0.000       0.000    
  16    0.000       0.000       0.000       0.000       0.000       0.000       0.000       0.000       0.000       0.000    
        0.000       0.000       0.000       0.000       0.000       0.000       0.000       0.000       0.000       0.000    
        0.000       0.000       0.000       0.000       0.000       0.000       0.000       0.000       0.000       0.000    
        0.000       0.000       0.000       0.000       0.000       0.000      8.0000E-02  8.0000E-02  8.0000E-02  8.0000E-02
       8.0000E-02  9.0000E-02  9.0000E-02  9.0000E-02  9.0000E-02  9.0000E-02  9.0000E-02  9.0000E-02  9.0000E-02  9.0000E-02
       9.0000E-02  9.0000E-02  9.0000E-02  9.0000E-02  9.0000E-02  9.0000E-02  0.1500      0.1500      0.1500      0.1500    
       0.1500      0.1500      0.1500      0.1500      0.1500      0.1500      0.1500      0.1500      0.1500      9.0000E-02
       9.0000E-02  9.0000E-02  9.0000E-02  9.0000E-02   0.000       0.000       0.000       0.000       0.000    
  17    0.000       0.000       0.000       0.000       0.000       0.000       0.000       0.000       0.000       0.000    
        0.000       0.000       0.000       0.000       0.000       0.000       0.000       0.000       0.000       0.000    
        0.000       0.000       0.000       0.000       0.000       0.000       0.000       0.000       0.000       0.000    
        0.000       0.000       0.000       0.000       0.000      8.0000E-02  8.0000E-02  8.0000E-02  8.0000E-02  8.0000E-02
       8.0000E-02  9.0000E-02  9.0000E-02  9.0000E-02  9.0000E-02  9.0000E-02  9.0000E-02  9.0000E-02  9.0000E-02  9.0000E-02
       9.0000E-02  9.0000E-02  9.0000E-02  9.0000E-02  9.0000E-02  9.0000E-02  0.1500      0.1500      0.1500      0.1500    
       0.1500      0.1500      0.1500      0.1500      0.1500      0.1500      0.1500      0.1500      0.1500      9.0000E-02
       9.0000E-02  9.0000E-02  9.0000E-02  9.0000E-02   0.000       0.000       0.000       0.000       0.000    
  18    0.000       0.000       0.000       0.000       0.000       0.000       0.000       0.000       0.000       0.000    
        0.000       0.000       0.000       0.000       0.000       0.000       0.000       0.000       0.000       0.000    
        0.000       0.000       0.000       0.000       0.000       0.000       0.000       0.000       0.000       0.000    
        0.000       0.000       0.000       0.000      8.0000E-02  8.0000E-02  8.0000E-02  8.0000E-02  8.0000E-02  8.0000E-02
       8.0000E-02  8.0000E-02  8.0000E-02  9.0000E-02  9.0000E-02  9.0000E-02  9.0000E-02  9.0000E-02  9.0000E-02  9.0000E-02
       9.0000E-02  9.0000E-02  9.0000E-02  9.0000E-02  9.0000E-02  9.0000E-02  0.1500      0.1500      0.1500      0.1500    
       0.1500      0.1500      0.1500      0.1500      0.1500      0.1500      0.1500      0.1500      0.1500      0.1500    
       9.0000E-02  9.0000E-02  9.0000E-02  9.0000E-02   0.000       0.000       0.000       0.000       0.000    
  19    0.000       0.000       0.000       0.000       0.000       0.000       0.000       0.000       0.000       0.000    
        0.000       0.000       0.000       0.000       0.000       0.000       0.000       0.000       0.000       0.000    
        0.000       0.000       0.000       0.000       0.000       0.000       0.000       0.000       0.000       0.000    
        0.000       0.000       0.000      8.0000E-02  8.0000E-02  8.0000E-02  8.0000E-02  8.0000E-02  8.0000E-02  8.0000E-02
       8.0000E-02  8.0000E-02  8.0000E-02  8.0000E-02  9.0000E-02  9.0000E-02  9.0000E-02  9.0000E-02  9.0000E-02  9.0000E-02
       9.0000E-02  9.0000E-02  9.0000E-02  9.0000E-02  9.0000E-02  9.0000E-02  9.0000E-02  0.1500      0.1500      0.1500    
       0.1500      0.1500      0.1500      0.1500      0.1500      0.1500      0.1500      0.1500      0.1500      0.1500    
       9.0000E-02  9.0000E-02  9.0000E-02  9.0000E-02   0.000       0.000       0.000       0.000       0.000    
  20    0.000       0.000       0.000       0.000       0.000       0.000       0.000       0.000       0.000       0.000    
        0.000       0.000       0.000       0.000       0.000       0.000       0.000       0.000       0.000       0.000    
        0.000       0.000       0.000       0.000       0.000       0.000       0.000       0.000       0.000       0.000    
        0.000       0.000       0.000      8.0000E-02  8.0000E-02  8.0000E-02  8.0000E-02  8.0000E-02  8.0000E-02  8.0000E-02
       8.0000E-02  8.0000E-02  8.0000E-02  8.0000E-02  9.0000E-02  9.0000E-02  9.0000E-02  9.0000E-02  9.0000E-02  9.0000E-02
       9.0000E-02  9.0000E-02  9.0000E-02  9.0000E-02  9.0000E-02  9.0000E-02  9.0000E-02  0.1500      0.1500      0.1500    
       0.1500      0.1500      0.1500      0.1500      0.1500      0.1500      0.1500      0.1500      0.1500      0.1500    
       9.0000E-02  9.0000E-02  9.0000E-02  9.0000E-02   0.000       0.000       0.000       0.000       0.000    
  21    0.000       0.000       0.000       0.000       0.000       0.000       0.000       0.000       0.000       0.000    
        0.000       0.000       0.000       0.000       0.000       0.000       0.000       0.000       0.000       0.000    
        0.000       0.000       0.000       0.000       0.000       0.000       0.000       0.000       0.000       0.000    
        0.000       0.000      8.0000E-02  8.0000E-02  8.0000E-02  8.0000E-02  8.0000E-02  8.0000E-02  8.0000E-02  8.0000E-02
       8.0000E-02  8.0000E-02  8.0000E-02  8.0000E-02  8.0000E-02  9.0000E-02  9.0000E-02  9.0000E-02  9.0000E-02  9.0000E-02
       9.0000E-02  9.0000E-02  9.0000E-02  9.0000E-02  9.0000E-02  9.0000E-02  9.0000E-02  9.0000E-02  0.1500      0.1500    
       0.1500      0.1500      0.1500      0.1500      0.1500      0.1500      0.1500      0.1500      0.1500      9.0000E-02
       9.0000E-02  9.0000E-02  9.0000E-02  9.0000E-02  9.0000E-02   0.000       0.000       0.000       0.000    
  22    0.000       0.000       0.000       0.000       0.000       0.000       0.000       0.000       0.000       0.000    
        0.000       0.000       0.000       0.000       0.000       0.000       0.000       0.000       0.000       0.000    
        0.000       0.000       0.000       0.000       0.000       0.000       0.000       0.000       0.000       0.000    
        0.000       0.000      8.0000E-02  8.0000E-02  8.0000E-02  8.0000E-02  8.0000E-02  8.0000E-02  8.0000E-02  8.0000E-02
       8.0000E-02  8.0000E-02  8.0000E-02  8.0000E-02  8.0000E-02  9.0000E-02  9.0000E-02  9.0000E-02  9.0000E-02  9.0000E-02
       9.0000E-02  9.0000E-02  9.0000E-02  9.0000E-02  9.0000E-02  9.0000E-02  9.0000E-02  9.0000E-02  9.0000E-02  9.0000E-02
       9.0000E-02  0.1500      0.1500      0.1500      0.1500      0.1500      0.1500      0.1500      0.1500      9.0000E-02
       9.0000E-02  9.0000E-02  9.0000E-02  9.0000E-02   0.000       0.000       0.000       0.000       0.000    
  23    0.000       0.000       0.000       0.000       0.000       0.000       0.000       0.000       0.000       0.000    
        0.000       0.000       0.000       0.000       0.000       0.000       0.000       0.000       0.000       0.000    
        0.000       0.000       0.000       0.000       0.000       0.000       0.000       0.000       0.000       0.000    
        0.000      8.0000E-02  8.0000E-02  8.0000E-02  8.0000E-02  8.0000E-02  8.0000E-02  8.0000E-02  8.0000E-02  8.0000E-02
       8.0000E-02  8.0000E-02  8.0000E-02  8.0000E-02  8.0000E-02  9.0000E-02  9.0000E-02  0.1500      9.0000E-02  9.0000E-02
       9.0000E-02  9.0000E-02  9.0000E-02  9.0000E-02  9.0000E-02  9.0000E-02  9.0000E-02  9.0000E-02  9.0000E-02  9.0000E-02
       9.0000E-02  9.0000E-02  0.1500      0.1500      0.1500      0.1500      0.1500      0.1500      0.1500      9.0000E-02
       9.0000E-02   0.000       0.000       0.000       0.000       0.000       0.000       0.000       0.000    
  24    0.000       0.000       0.000       0.000       0.000       0.000       0.000       0.000       0.000       0.000    
        0.000       0.000       0.000       0.000       0.000       0.000       0.000       0.000       0.000       0.000    
        0.000       0.000       0.000       0.000       0.000       0.000       0.000       0.000      8.0000E-02  8.0000E-02
       8.0000E-02  8.0000E-02  8.0000E-02  8.0000E-02  8.0000E-02  8.0000E-02  8.0000E-02  8.0000E-02  8.0000E-02  8.0000E-02
       8.0000E-02  8.0000E-02  8.0000E-02  8.0000E-02  8.0000E-02  9.0000E-02  9.0000E-02  0.1500      0.1500      9.0000E-02
       9.0000E-02  9.0000E-02  9.0000E-02  9.0000E-02  9.0000E-02  9.0000E-02  9.0000E-02  9.0000E-02  9.0000E-02  9.0000E-02
       9.0000E-02  9.0000E-02  9.0000E-02  0.1500      0.1500      0.1500      0.1500      0.1500      0.1500      9.0000E-02
       9.0000E-02   0.000       0.000       0.000       0.000       0.000       0.000       0.000       0.000    
  25    0.000       0.000       0.000       0.000       0.000       0.000       0.000       0.000       0.000       0.000    
        0.000       0.000       0.000       0.000       0.000       0.000       0.000       0.000       0.000       0.000    
        0.000       0.000       0.000       0.000       0.000       0.000       0.000      8.0000E-02  8.0000E-02  8.0000E-02
       8.0000E-02  8.0000E-02  8.0000E-02  8.0000E-02  8.0000E-02  8.0000E-02  8.0000E-02  8.0000E-02  8.0000E-02  8.0000E-02
       8.0000E-02  8.0000E-02  8.0000E-02  8.0000E-02  9.0000E-02  9.0000E-02  9.0000E-02  0.1500      0.1500      9.0000E-02
       9.0000E-02  9.0000E-02  9.0000E-02  9.0000E-02  9.0000E-02  9.0000E-02  9.0000E-02  9.0000E-02  9.0000E-02  9.0000E-02
       9.0000E-02  9.0000E-02  9.0000E-02  9.0000E-02  9.0000E-02  0.1500      0.1500      0.1500      0.1500      9.0000E-02
       9.0000E-02   0.000       0.000       0.000       0.000       0.000       0.000       0.000       0.000    
  26    0.000       0.000       0.000       0.000       0.000       0.000       0.000       0.000       0.000       0.000    
        0.000       0.000       0.000       0.000       0.000       0.000       0.000       0.000       0.000       0.000    
        0.000       0.000       0.000       0.000       0.000      8.0000E-02  8.0000E-02  8.0000E-02  8.0000E-02  8.0000E-02
       8.0000E-02  8.0000E-02  8.0000E-02  8.0000E-02  8.0000E-02  8.0000E-02  8.0000E-02  8.0000E-02  8.0000E-02  8.0000E-02
       8.0000E-02  8.0000E-02  9.0000E-02  9.0000E-02  9.0000E-02  9.0000E-02  9.0000E-02  9.0000E-02  0.1500      0.1500    
       0.1500      9.0000E-02  9.0000E-02  9.0000E-02  9.0000E-02  9.0000E-02  9.0000E-02  9.0000E-02  9.0000E-02  9.0000E-02
       9.0000E-02  9.0000E-02  9.0000E-02  9.0000E-02  9.0000E-02  0.1500      0.1500      0.1500      0.1500      9.0000E-02
       9.0000E-02   0.000       0.000       0.000       0.000       0.000       0.000       0.000       0.000    
  27    0.000       0.000       0.000       0.000       0.000       0.000       0.000       0.000       0.000       0.000    
        0.000       0.000       0.000       0.000       0.000       0.000       0.000       0.000       0.000       0.000    
        0.000       0.000       0.000       0.000      8.0000E-02  8.0000E-02  8.0000E-02  8.0000E-02  8.0000E-02  8.0000E-02
       8.0000E-02  8.0000E-02  8.0000E-02  8.0000E-02  8.0000E-02  8.0000E-02  8.0000E-02  8.0000E-02  8.0000E-02  8.0000E-02
       8.0000E-02  9.0000E-02  9.0000E-02  9.0000E-02  9.0000E-02  9.0000E-02  9.0000E-02  9.0000E-02  9.0000E-02  0.1500    
       0.1500      9.0000E-02  9.0000E-02  9.0000E-02  9.0000E-02  9.0000E-02  9.0000E-02  9.0000E-02  9.0000E-02  9.0000E-02
       9.0000E-02  9.0000E-02  9.0000E-02  9.0000E-02  9.0000E-02  0.1500      0.1500      0.1500      0.1500      0.1500    
       9.0000E-02   0.000       0.000       0.000       0.000       0.000       0.000       0.000       0.000    
  28    0.000       0.000       0.000       0.000       0.000       0.000       0.000       0.000       0.000       0.000    
        0.000       0.000       0.000       0.000       0.000       0.000       0.000       0.000       0.000       0.000    
        0.000       0.000       0.000      8.0000E-02  8.0000E-02  8.0000E-02  8.0000E-02  8.0000E-02  8.0000E-02  8.0000E-02
       8.0000E-02  8.0000E-02  8.0000E-02  8.0000E-02  8.0000E-02  8.0000E-02  8.0000E-02  8.0000E-02  9.0000E-02  9.0000E-02
       9.0000E-02  9.0000E-02  9.0000E-02  9.0000E-02  9.0000E-02  9.0000E-02  9.0000E-02  9.0000E-02  9.0000E-02  9.0000E-02
       0.1500      0.1500      9.0000E-02  9.0000E-02  9.0000E-02  9.0000E-02  9.0000E-02  9.0000E-02  9.0000E-02  9.0000E-02
       9.0000E-02  9.0000E-02  9.0000E-02  9.0000E-02  9.0000E-02  9.0000E-02  0.1500      0.1500      0.1500      0.1500    
       9.0000E-02  9.0000E-02   0.000       0.000       0.000       0.000       0.000       0.000       0.000    
  29    0.000       0.000       0.000       0.000       0.000       0.000       0.000       0.000       0.000       0.000    
        0.000       0.000       0.000       0.000       0.000       0.000       0.000       0.000       0.000       0.000    
        0.000      8.0000E-02  8.0000E-02  8.0000E-02  8.0000E-02  8.0000E-02  8.0000E-02  8.0000E-02  8.0000E-02  8.0000E-02
       8.0000E-02  8.0000E-02  8.0000E-02  8.0000E-02  8.0000E-02  8.0000E-02  8.0000E-02  9.0000E-02  9.0000E-02  9.0000E-02
       9.0000E-02  9.0000E-02  9.0000E-02  9.0000E-02  9.0000E-02  9.0000E-02  9.0000E-02  9.0000E-02  9.0000E-02  9.0000E-02
       0.1500      0.1500      9.0000E-02  9.0000E-02  9.0000E-02  9.0000E-02  9.0000E-02  9.0000E-02  9.0000E-02  9.0000E-02
       9.0000E-02  9.0000E-02  9.0000E-02  9.0000E-02  9.0000E-02  9.0000E-02  0.1500      0.1500      0.1500      0.1500    
       9.0000E-02  9.0000E-02   0.000       0.000       0.000       0.000       0.000       0.000       0.000    
  30    0.000       0.000       0.000       0.000       0.000       0.000       0.000       0.000       0.000       0.000    
        0.000       0.000       0.000       0.000       0.000       0.000       0.000       0.000       0.000      8.0000E-02
       8.0000E-02  8.0000E-02  8.0000E-02  8.0000E-02  8.0000E-02  8.0000E-02  8.0000E-02  8.0000E-02  8.0000E-02  8.0000E-02
       8.0000E-02  8.0000E-02  8.0000E-02  8.0000E-02  8.0000E-02  8.0000E-02  8.0000E-02  9.0000E-02  9.0000E-02  9.0000E-02
       9.0000E-02  9.0000E-02  9.0000E-02  9.0000E-02  9.0000E-02  9.0000E-02  9.0000E-02  9.0000E-02  9.0000E-02  9.0000E-02
       0.1500      0.1500      9.0000E-02  9.0000E-02  9.0000E-02  9.0000E-02  9.0000E-02  9.0000E-02  9.0000E-02  9.0000E-02
       9.0000E-02  9.0000E-02  9.0000E-02  9.0000E-02  9.0000E-02  9.0000E-02  0.1500      0.1500      0.1500      0.1500    
       9.0000E-02  9.0000E-02   0.000       0.000       0.000       0.000       0.000       0.000       0.000    
  31    0.000       0.000       0.000       0.000       0.000       0.000       0.000       0.000       0.000       0.000    
        0.000       0.000       0.000       0.000       0.000       0.000       0.000       0.000      8.0000E-02  8.0000E-02
       8.0000E-02  8.0000E-02  8.0000E-02  8.0000E-02  8.0000E-02  8.0000E-02  8.0000E-02  8.0000E-02  8.0000E-02  8.0000E-02
       8.0000E-02  8.0000E-02  8.0000E-02  8.0000E-02  8.0000E-02  8.0000E-02  9.0000E-02  9.0000E-02  9.0000E-02  9.0000E-02
       9.0000E-02  9.0000E-02  9.0000E-02  0.1500      9.0000E-02  9.0000E-02  9.0000E-02  9.0000E-02  9.0000E-02  9.0000E-02
       0.1500      0.1500      9.0000E-02  9.0000E-02  9.0000E-02  9.0000E-02  9.0000E-02  9.0000E-02  9.0000E-02  9.0000E-02
       9.0000E-02  9.0000E-02  9.0000E-02  9.0000E-02  9.0000E-02  9.0000E-02  0.1500      0.1500      0.1500      0.1500    
       9.0000E-02  9.0000E-02   0.000       0.000       0.000       0.000       0.000       0.000       0.000    
  32    0.000       0.000       0.000       0.000       0.000       0.000       0.000       0.000       0.000       0.000    
        0.000       0.000       0.000       0.000       0.000       0.000      8.0000E-02  8.0000E-02  8.0000E-02  8.0000E-02
       8.0000E-02  8.0000E-02  8.0000E-02  8.0000E-02  8.0000E-02  8.0000E-02  8.0000E-02  8.0000E-02  8.0000E-02  8.0000E-02
       8.0000E-02  8.0000E-02  8.0000E-02  8.0000E-02  8.0000E-02  8.0000E-02  9.0000E-02  9.0000E-02  0.1500      0.1500    
       0.1500      0.1500      0.1500      0.1500      9.0000E-02  9.0000E-02  9.0000E-02  9.0000E-02  9.0000E-02  9.0000E-02
       0.1500      0.1500      0.1500      9.0000E-02  9.0000E-02  9.0000E-02  9.0000E-02  9.0000E-02  9.0000E-02  9.0000E-02
       9.0000E-02  9.0000E-02  9.0000E-02  9.0000E-02  9.0000E-02  9.0000E-02  9.0000E-02  0.1500      0.1500      0.1500    
       0.1500      9.0000E-02   0.000       0.000       0.000       0.000       0.000       0.000       0.000    
  33    0.000       0.000       0.000       0.000       0.000       0.000       0.000       0.000       0.000       0.000    
        0.000       0.000       0.000       0.000       0.000      8.0000E-02  8.0000E-02  8.0000E-02  8.0000E-02  8.0000E-02
       8.0000E-02  8.0000E-02  8.0000E-02  8.0000E-02  8.0000E-02  8.0000E-02  8.0000E-02  8.0000E-02  8.0000E-02  8.0000E-02
       8.0000E-02  8.0000E-02  8.0000E-02  8.0000E-02  9.0000E-02  9.0000E-02  9.0000E-02  0.1500      0.1500      0.1500    
       0.1500      0.1500      0.1500      0.1500      0.1500      9.0000E-02  9.0000E-02  9.0000E-02  9.0000E-02  9.0000E-02
       0.1500      0.1500      0.1500      0.1500      0.1500      0.1500      9.0000E-02  9.0000E-02  9.0000E-02  9.0000E-02
       9.0000E-02  9.0000E-02  9.0000E-02  9.0000E-02  9.0000E-02  9.0000E-02  9.0000E-02  0.1500      0.1500      0.1500    
       0.1500      9.0000E-02  9.0000E-02   0.000       0.000       0.000       0.000       0.000       0.000    
  34    0.000       0.000       0.000       0.000       0.000       0.000       0.000       0.000       0.000       0.000    
        0.000       0.000       0.000       0.000      8.0000E-02  8.0000E-02  8.0000E-02  8.0000E-02  8.0000E-02  8.0000E-02
       8.0000E-02  8.0000E-02  8.0000E-02  8.0000E-02  8.0000E-02  8.0000E-02  8.0000E-02  0.1500      8.0000E-02  8.0000E-02
       8.0000E-02  8.0000E-02  8.0000E-02  8.0000E-02  9.0000E-02  9.0000E-02  0.1500      0.1500      0.1500      0.1500    
       0.1500      0.1500      0.1500      0.1500      0.1500      0.1500      0.1500      0.1500      0.1500      0.1500    
       0.1500      0.1500      0.1500      0.1500      0.1500      0.1500      9.0000E-02  9.0000E-02  9.0000E-02  9.0000E-02
       9.0000E-02  9.0000E-02  9.0000E-02  9.0000E-02  9.0000E-02  9.0000E-02  9.0000E-02  0.1500      0.1500      0.1500    
       9.0000E-02  8.0000E-02  8.0000E-02   0.000       0.000       0.000       0.000       0.000       0.000    
  35    0.000       0.000       0.000       0.000       0.000       0.000       0.000       0.000       0.000       0.000    
        0.000       0.000       0.000      8.0000E-02  8.0000E-02  8.0000E-02  8.0000E-02  8.0000E-02  8.0000E-02  8.0000E-02
       8.0000E-02  8.0000E-02  8.0000E-02  8.0000E-02  0.1500      0.1500      0.1500      0.1500      0.1500      0.1500    
       8.0000E-02  8.0000E-02  0.1500      0.1500      0.1500      0.1500      0.1500      0.1500      0.1500      0.1500    
       0.1500      0.1500      0.1500      0.1500      0.1500      0.1500      0.1500      0.1500      0.1500      0.1500    
       0.1500      0.1500      0.1500      0.1500      0.1500      0.1500      9.0000E-02  9.0000E-02  9.0000E-02  9.0000E-02
       9.0000E-02  9.0000E-02  9.0000E-02  9.0000E-02  9.0000E-02  9.0000E-02  9.0000E-02  0.1500      0.1500      9.0000E-02
       9.0000E-02  8.0000E-02  8.0000E-02  8.0000E-02   0.000       0.000       0.000       0.000       0.000    
  36    0.000       0.000       0.000       0.000       0.000       0.000       0.000       0.000       0.000       0.000    
        0.000       0.000       0.000      8.0000E-02  8.0000E-02  8.0000E-02  8.0000E-02  8.0000E-02  8.0000E-02  8.0000E-02
       8.0000E-02  8.0000E-02  8.0000E-02  8.0000E-02  0.1500      0.1500      0.1500      0.1500      0.1500      0.1500    
       0.1500      0.1500      0.1500      0.1500      0.1500      0.1500      0.1500      0.1500      0.1500      0.1500    
       0.1500      0.1500      0.1500      0.1500      0.1500      0.1500      0.1500      0.1500      0.1500      0.1500    
       0.1500      0.1500      0.1500      0.1500      0.1500      0.1500      0.1500      0.1500      0.1500      9.0000E-02
       9.0000E-02  9.0000E-02  0.1500      0.1500      9.0000E-02  9.0000E-02  9.0000E-02  0.1500      0.1500      9.0000E-02
       9.0000E-02  9.0000E-02  8.0000E-02  8.0000E-02  8.0000E-02   0.000       0.000       0.000       0.000    
  37    0.000       0.000       0.000       0.000       0.000       0.000       0.000       0.000       0.000       0.000    
        0.000       0.000      8.0000E-02  8.0000E-02  8.0000E-02  8.0000E-02  8.0000E-02  8.0000E-02  8.0000E-02  8.0000E-02
       8.0000E-02  8.0000E-02  8.0000E-02  0.1500      0.1500      0.1500      0.1500      0.1500      0.1500      0.1500    
       0.1500      0.1500      0.1500      0.1500      0.1500      0.1500      0.1500      0.1500      9.0000E-02  9.0000E-02
       9.0000E-02  9.0000E-02  0.1500      0.1500      0.1500      0.1500      0.1500      0.1500      0.1500      0.1500    
       0.1500      0.1500      0.1500      0.1500      0.1500      0.1500      0.1500      0.1500      0.1500      0.1500    
       0.1500      0.1500      0.1500      0.1500      0.1500      0.1500      0.1500      0.1500      0.1500      0.1500    
       9.0000E-02  9.0000E-02  8.0000E-02  8.0000E-02  8.0000E-02   0.000       0.000       0.000       0.000    
  38    0.000       0.000       0.000       0.000       0.000       0.000       0.000       0.000       0.000       0.000    
       8.0000E-02  8.0000E-02  8.0000E-02  8.0000E-02  8.0000E-02  8.0000E-02  8.0000E-02  8.0000E-02  0.1500      0.1500    
       0.1500      0.1500      0.1500      0.1500      0.1500      0.1500      0.1500      0.1500      0.1500      0.1500    
       0.1500      0.1500      0.1500      0.1500      0.1500      0.1500      0.1500      0.1500      9.0000E-02  9.0000E-02
       9.0000E-02  9.0000E-02  0.1500      0.1500      0.1500      0.1500      9.0000E-02  0.1500      0.1500      0.1500    
       0.1500      0.1500      0.1500      0.1500      0.1500      0.1500      0.1500      0.1500      0.1500      0.1500    
       0.1500      0.1500      0.1500      0.1500      0.1500      0.1500      0.1500      0.1500      0.1500      0.1500    
       0.1500      9.0000E-02  8.0000E-02  8.0000E-02  8.0000E-02  8.0000E-02   0.000       0.000       0.000    
  39    0.000       0.000       0.000       0.000       0.000       0.000       0.000      8.0000E-02  8.0000E-02  8.0000E-02
       8.0000E-02  8.0000E-02  8.0000E-02  8.0000E-02  0.1500      0.1500      0.1500      0.1500      0.1500      0.1500    
       0.1500      0.1500      0.1500      9.0000E-02  9.0000E-02  9.0000E-02  9.0000E-02  9.0000E-02  0.1500      0.1500    
       0.1500      0.1500      0.1500      0.1500      0.1500      0.1500      0.1500      0.1500      9.0000E-02  9.0000E-02
       9.0000E-02  9.0000E-02  9.0000E-02  0.1500      0.1500      9.0000E-02  9.0000E-02  9.0000E-02  0.1500      0.1500    
       0.1500      0.1500      0.1500      0.1500      0.1500      0.1500      0.1500      0.1500      0.1500      0.1500    
       0.1500      0.1500      0.1500      0.1500      0.1500      0.1500      0.1500      0.1500      0.1500      0.1500    
       0.1500      0.1500      0.1500      8.0000E-02  8.0000E-02  0.1500       0.000       0.000       0.000    
  40    0.000       0.000       0.000       0.000       0.000       0.000      8.0000E-02  8.0000E-02  8.0000E-02  8.0000E-02
       8.0000E-02  8.0000E-02  0.1500      0.1500      0.1500      0.1500      0.1500      0.1500      8.0000E-02  8.0000E-02
       8.0000E-02  8.0000E-02  9.0000E-02  9.0000E-02  9.0000E-02  9.0000E-02  9.0000E-02  9.0000E-02  0.1500      0.1500    
       0.1500      0.1500      0.1500      0.1500      0.1500      0.1500      0.1500      0.1500      9.0000E-02  9.0000E-02
       9.0000E-02  9.0000E-02  9.0000E-02  0.1500      0.1500      9.0000E-02  9.0000E-02  9.0000E-02  9.0000E-02  0.1500    
       0.1500      0.1500      0.1500      0.1500      0.1500      0.1500      9.0000E-02  9.0000E-02  0.1500      0.1500    
       0.1500      0.1500      0.1500      0.1500      0.1500      0.1500      0.1500      0.1500      0.1500      0.1500    
       0.1500      0.1500      0.1500      0.1500      0.1500      0.1500       0.000       0.000       0.000    
  41    0.000       0.000       0.000       0.000       0.000      8.0000E-02  8.0000E-02  8.0000E-02  8.0000E-02  8.0000E-02
       8.0000E-02  8.0000E-02  0.1500      0.1500      8.0000E-02  8.0000E-02  8.0000E-02  8.0000E-02  8.0000E-02  8.0000E-02
       8.0000E-02  9.0000E-02  9.0000E-02  9.0000E-02  9.0000E-02  9.0000E-02  9.0000E-02  9.0000E-02  0.1500      0.1500    
       0.1500      0.1500      0.1500      0.1500      0.1500      0.1500      0.1500      0.1500      9.0000E-02  9.0000E-02
       9.0000E-02  9.0000E-02  9.0000E-02  0.1500      0.1500      0.1500      9.0000E-02  9.0000E-02  9.0000E-02  0.1500    
       0.1500      0.1500      8.0000E-02  8.0000E-02  8.0000E-02  8.0000E-02  9.0000E-02  9.0000E-02  9.0000E-02  0.1500    
       0.1500      0.1500      9.0000E-02  0.1500      0.1500      0.1500      9.0000E-02  9.0000E-02  0.1500      0.1500    
       0.1500      0.1500      0.1500      0.1500      0.1500       0.000       0.000       0.000       0.000    
  42    0.000       0.000       0.000       0.000       0.000      8.0000E-02  8.0000E-02  8.0000E-02  8.0000E-02  8.0000E-02
       8.0000E-02  8.0000E-02  8.0000E-02  8.0000E-02  8.0000E-02  8.0000E-02  8.0000E-02  8.0000E-02  8.0000E-02  9.0000E-02
       9.0000E-02  9.0000E-02  9.0000E-02  0.1500      0.1500      0.1500      0.1500      0.1500      0.1500      0.1500    
       0.1500      0.1500      0.1500      0.1500      0.1500      0.1500      0.1500      0.1500      9.0000E-02  9.0000E-02
       9.0000E-02  9.0000E-02  9.0000E-02  0.1500      0.1500      0.1500      9.0000E-02  9.0000E-02  9.0000E-02  9.0000E-02
       8.0000E-02  8.0000E-02  8.0000E-02  8.0000E-02  8.0000E-02  8.0000E-02  8.0000E-02  9.0000E-02  9.0000E-02  0.1500    
       0.1500      0.1500      9.0000E-02  9.0000E-02  9.0000E-02  9.0000E-02  9.0000E-02  9.0000E-02  9.0000E-02  0.1500    
       0.1500      0.1500      0.1500      0.1500      0.1500       0.000       0.000       0.000       0.000    
  43    0.000       0.000       0.000       0.000       0.000      8.0000E-02  8.0000E-02  8.0000E-02  8.0000E-02  8.0000E-02
       8.0000E-02  8.0000E-02  8.0000E-02  8.0000E-02  8.0000E-02  8.0000E-02  8.0000E-02  8.0000E-02  8.0000E-02  9.0000E-02
       9.0000E-02  9.0000E-02  0.1500      0.1500      0.1500      0.1500      0.1500      0.1500      0.1500      0.1500    
       0.1500      0.1500      0.1500      0.1500      0.1500      0.1500      0.1500      9.0000E-02  9.0000E-02  9.0000E-02
       9.0000E-02  9.0000E-02  9.0000E-02  0.1500      0.1500      0.1500      9.0000E-02  9.0000E-02  9.0000E-02  9.0000E-02
       8.0000E-02  8.0000E-02  8.0000E-02  8.0000E-02  8.0000E-02  8.0000E-02  8.0000E-02  9.0000E-02  9.0000E-02  0.1500    
       0.1500      9.0000E-02  9.0000E-02  9.0000E-02  9.0000E-02  9.0000E-02  9.0000E-02  9.0000E-02  9.0000E-02  0.1500    
       0.1500      0.1500      0.1500      0.1500      0.1500       0.000       0.000       0.000       0.000    
  44    0.000       0.000       0.000       0.000       0.000      8.0000E-02  8.0000E-02  8.0000E-02  8.0000E-02  8.0000E-02
       8.0000E-02  8.0000E-02  8.0000E-02  8.0000E-02  8.0000E-02  9.0000E-02  9.0000E-02  9.0000E-02  9.0000E-02  0.1500    
       0.1500      0.1500      0.1500      0.1500      0.1500      0.1500      0.1500      0.1500      0.1500      0.1500    
       0.1500      0.1500      0.1500      0.1500      0.1500      0.1500      0.1500      9.0000E-02  9.0000E-02  9.0000E-02
       9.0000E-02  9.0000E-02  8.0000E-02  8.0000E-02  0.1500      0.1500      9.0000E-02  9.0000E-02  9.0000E-02  9.0000E-02
       9.0000E-02  8.0000E-02  8.0000E-02  8.0000E-02  8.0000E-02  8.0000E-02  8.0000E-02  9.0000E-02  9.0000E-02  0.1500    
       0.1500      9.0000E-02  9.0000E-02  9.0000E-02  9.0000E-02  9.0000E-02  9.0000E-02  9.0000E-02  9.0000E-02  0.1500    
       0.1500      0.1500      0.1500      0.1500      0.1500       0.000       0.000       0.000       0.000    
  45    0.000       0.000       0.000      8.0000E-02  8.0000E-02  8.0000E-02  8.0000E-02  8.0000E-02  8.0000E-02  8.0000E-02
       8.0000E-02  8.0000E-02  8.0000E-02  8.0000E-02  0.1500      0.1500      0.1500      0.1500      0.1500      0.1500    
       0.1500      0.1500      0.1500      0.1500      0.1500      0.1500      0.1500      0.1500      0.1500      0.1500    
       0.1500      0.1500      0.1500      0.1500      0.1500      0.1500      0.1500      0.1500      8.0000E-02  8.0000E-02
       8.0000E-02  8.0000E-02  8.0000E-02  8.0000E-02  0.1500      0.1500      9.0000E-02  9.0000E-02  8.0000E-02  8.0000E-02
       8.0000E-02  8.0000E-02  8.0000E-02  8.0000E-02  8.0000E-02  8.0000E-02  8.0000E-02  9.0000E-02  9.0000E-02  0.1500    
       0.1500      9.0000E-02  9.0000E-02  9.0000E-02  9.0000E-02  9.0000E-02  9.0000E-02  9.0000E-02  9.0000E-02  0.1500    
       0.1500      0.1500      0.1500      9.0000E-02  8.0000E-02   0.000       0.000       0.000       0.000    
  46    0.000       0.000       0.000      8.0000E-02  8.0000E-02  8.0000E-02  8.0000E-02  8.0000E-02  8.0000E-02  8.0000E-02
       8.0000E-02  0.1500      0.1500      0.1500      0.1500      0.1500      0.1500      0.1500      0.1500      0.1500    
       0.1500      0.1500      0.1500      0.1500      0.1500      0.1500      0.1500      0.1500      0.1500      0.1500    
       0.1500      0.1500      0.1500      0.1500      0.1500      0.1500      0.1500      9.0000E-02  8.0000E-02  8.0000E-02
       8.0000E-02  8.0000E-02  8.0000E-02  8.0000E-02  0.1500      0.1500      9.0000E-02  9.0000E-02  8.0000E-02  8.0000E-02
       8.0000E-02  8.0000E-02  8.0000E-02  8.0000E-02  8.0000E-02  8.0000E-02  8.0000E-02  9.0000E-02  9.0000E-02  0.1500    
       0.1500      9.0000E-02  9.0000E-02  9.0000E-02  9.0000E-02  9.0000E-02  9.0000E-02  9.0000E-02  9.0000E-02  0.1500    
       0.1500      0.1500      0.1500      9.0000E-02  9.0000E-02   0.000       0.000       0.000       0.000    
  47    0.000       0.000       0.000      8.0000E-02  8.0000E-02  8.0000E-02  8.0000E-02  8.0000E-02  8.0000E-02  8.0000E-02
       8.0000E-02  0.1500      0.1500      0.1500      0.1500      0.1500      0.1500      0.1500      0.1500      0.1500    
       0.1500      0.1500      0.1500      0.1500      0.1500      0.1500      0.1500      0.1500      0.1500      9.0000E-02
       0.1500      0.1500      0.1500      0.1500      0.1500      0.1500      0.1500      9.0000E-02  8.0000E-02  8.0000E-02
       8.0000E-02  8.0000E-02  8.0000E-02  8.0000E-02  0.1500      0.1500      9.0000E-02  9.0000E-02  8.0000E-02  8.0000E-02
       8.0000E-02  8.0000E-02  8.0000E-02  8.0000E-02  8.0000E-02  8.0000E-02  8.0000E-02  8.0000E-02  9.0000E-02  9.0000E-02
       0.1500      9.0000E-02  9.0000E-02  9.0000E-02  9.0000E-02  9.0000E-02  9.0000E-02  9.0000E-02  9.0000E-02  0.1500    
       0.1500      0.1500      0.1500      9.0000E-02  9.0000E-02   0.000       0.000       0.000       0.000    
  48    0.000       0.000       0.000      8.0000E-02  8.0000E-02  8.0000E-02  8.0000E-02  8.0000E-02  8.0000E-02  8.0000E-02
       8.0000E-02  0.1500      0.1500      0.1500      0.1500      0.1500      0.1500      0.1500      0.1500      0.1500    
       0.1500      0.1500      0.1500      0.1500      9.0000E-02  9.0000E-02  9.0000E-02  9.0000E-02  9.0000E-02  9.0000E-02
       0.1500      0.1500      0.1500      0.1500      0.1500      0.1500      0.1500      0.1500      8.0000E-02  8.0000E-02
       8.0000E-02  8.0000E-02  8.0000E-02  8.0000E-02  0.1500      0.1500      9.0000E-02  9.0000E-02  9.0000E-02  8.0000E-02
       8.0000E-02  8.0000E-02  8.0000E-02  8.0000E-02  8.0000E-02  8.0000E-02  8.0000E-02  8.0000E-02  9.0000E-02  9.0000E-02
       0.1500      0.1500      9.0000E-02  9.0000E-02  9.0000E-02  9.0000E-02  9.0000E-02  9.0000E-02  9.0000E-02  0.1500    
       0.1500      0.1500      0.1500      9.0000E-02  9.0000E-02  9.0000E-02   0.000       0.000       0.000    
  49    0.000       0.000       0.000      8.0000E-02  8.0000E-02  8.0000E-02  8.0000E-02  8.0000E-02  8.0000E-02  8.0000E-02
       0.1500      0.1500      0.1500      0.1500      0.1500      0.1500      0.1500      0.1500      0.1500      9.0000E-02
       9.0000E-02  9.0000E-02  9.0000E-02  9.0000E-02  9.0000E-02  9.0000E-02  9.0000E-02  9.0000E-02  9.0000E-02  9.0000E-02
       0.1500      0.1500      0.1500      0.1500      0.1500      0.1500      0.1500      0.1500      0.1500      8.0000E-02
       8.0000E-02  8.0000E-02  8.0000E-02  8.0000E-02  8.0000E-02  0.1500      0.1500      0.1500      9.0000E-02  8.0000E-02
       8.0000E-02  8.0000E-02  8.0000E-02  8.0000E-02  8.0000E-02  8.0000E-02  8.0000E-02  8.0000E-02  9.0000E-02  9.0000E-02
       0.1500      0.1500      9.0000E-02  9.0000E-02  9.0000E-02  9.0000E-02  9.0000E-02  9.0000E-02  9.0000E-02  0.1500    
       0.1500      0.1500      0.1500      9.0000E-02  9.0000E-02  9.0000E-02   0.000       0.000       0.000    
  50    0.000       0.000       0.000      8.0000E-02  8.0000E-02  8.0000E-02  8.0000E-02  8.0000E-02  8.0000E-02  8.0000E-02
       0.1500      0.1500      0.1500      0.1500      0.1500      9.0000E-02  9.0000E-02  9.0000E-02  9.0000E-02  9.0000E-02
       9.0000E-02  9.0000E-02  9.0000E-02  9.0000E-02  9.0000E-02  9.0000E-02  9.0000E-02  9.0000E-02  9.0000E-02  9.0000E-02
       9.0000E-02  0.1500      0.1500      0.1500      0.1500      0.1500      0.1500      0.1500      0.1500      0.1500    
       8.0000E-02  8.0000E-02  8.0000E-02  8.0000E-02  8.0000E-02  8.0000E-02  0.1500      0.1500      0.1500      8.0000E-02
       8.0000E-02  8.0000E-02  8.0000E-02  8.0000E-02  8.0000E-02  8.0000E-02  8.0000E-02  8.0000E-02  9.0000E-02  9.0000E-02
       0.1500      0.1500      9.0000E-02  9.0000E-02  9.0000E-02  9.0000E-02  9.0000E-02  9.0000E-02  9.0000E-02  0.1500    
       0.1500      0.1500      0.1500      0.1500      9.0000E-02  9.0000E-02   0.000       0.000       0.000    
  51    0.000       0.000       0.000      8.0000E-02  8.0000E-02  8.0000E-02  8.0000E-02  8.0000E-02  8.0000E-02  0.1500    
       0.1500      0.1500      0.1500      0.1500      0.1500      8.0000E-02  8.0000E-02  9.0000E-02  9.0000E-02  9.0000E-02
       9.0000E-02  9.0000E-02  9.0000E-02  9.0000E-02  9.0000E-02  9.0000E-02  9.0000E-02  9.0000E-02  9.0000E-02  9.0000E-02
       9.0000E-02  0.1500      0.1500      0.1500      0.1500      0.1500      0.1500      0.1500      0.1500      0.1500    
       8.0000E-02  8.0000E-02  8.0000E-02  8.0000E-02  8.0000E-02  8.0000E-02  0.1500      0.1500      0.1500      8.0000E-02
       8.0000E-02  8.0000E-02  8.0000E-02  8.0000E-02  8.0000E-02  8.0000E-02  8.0000E-02  8.0000E-02  9.0000E-02  9.0000E-02
       0.1500      0.1500      0.1500      9.0000E-02  9.0000E-02  9.0000E-02  9.0000E-02  9.0000E-02  9.0000E-02  0.1500    
       0.1500      0.1500      0.1500      0.1500      9.0000E-02  9.0000E-02   0.000       0.000       0.000    
  52    0.000       0.000      8.0000E-02  8.0000E-02  8.0000E-02  8.0000E-02  8.0000E-02  8.0000E-02  8.0000E-02  0.1500    
       0.1500      0.1500      0.1500      8.0000E-02  8.0000E-02  8.0000E-02  8.0000E-02  8.0000E-02  8.0000E-02  9.0000E-02
       9.0000E-02  9.0000E-02  9.0000E-02  9.0000E-02  9.0000E-02  9.0000E-02  9.0000E-02  9.0000E-02  9.0000E-02  9.0000E-02
       9.0000E-02  0.1500      0.1500      0.1500      0.1500      0.1500      0.1500      0.1500      0.1500      0.1500    
       8.0000E-02  8.0000E-02  8.0000E-02  8.0000E-02  8.0000E-02  8.0000E-02  8.0000E-02  0.1500      0.1500      8.0000E-02
       8.0000E-02  8.0000E-02  8.0000E-02  8.0000E-02  8.0000E-02  8.0000E-02  8.0000E-02  8.0000E-02  8.0000E-02  9.0000E-02
       0.1500      0.1500      0.1500      9.0000E-02  9.0000E-02  9.0000E-02  9.0000E-02  9.0000E-02  9.0000E-02  0.1500    
       0.1500      0.1500      0.1500      0.1500      9.0000E-02  9.0000E-02   0.000       0.000       0.000    
  53    0.000       0.000      8.0000E-02  8.0000E-02  8.0000E-02  8.0000E-02  8.0000E-02  8.0000E-02  0.1500      0.1500    
       0.1500      0.1500      8.0000E-02  8.0000E-02  8.0000E-02  8.0000E-02  8.0000E-02  8.0000E-02  8.0000E-02  8.0000E-02
       8.0000E-02  9.0000E-02  9.0000E-02  9.0000E-02  9.0000E-02  9.0000E-02  9.0000E-02  9.0000E-02  9.0000E-02  9.0000E-02
       9.0000E-02  0.1500      0.1500      0.1500      0.1500      0.1500      0.1500      0.1500      0.1500      8.0000E-02
       8.0000E-02  8.0000E-02  8.0000E-02  8.0000E-02  8.0000E-02  8.0000E-02  8.0000E-02  0.1500      0.1500      0.1500    
       8.0000E-02  8.0000E-02  8.0000E-02  8.0000E-02  8.0000E-02  8.0000E-02  8.0000E-02  8.0000E-02  8.0000E-02  9.0000E-02
       0.1500      0.1500      0.1500      9.0000E-02  9.0000E-02  9.0000E-02  9.0000E-02  9.0000E-02  9.0000E-02  0.1500    
       0.1500      0.1500      0.1500      0.1500      9.0000E-02  9.0000E-02  9.0000E-02   0.000       0.000    
  54    0.000       0.000      8.0000E-02  8.0000E-02  8.0000E-02  8.0000E-02  8.0000E-02  8.0000E-02  0.1500      0.1500    
       0.1500      8.0000E-02  8.0000E-02  8.0000E-02  8.0000E-02  8.0000E-02  8.0000E-02  8.0000E-02  8.0000E-02  8.0000E-02
       8.0000E-02  9.0000E-02  9.0000E-02  9.0000E-02  9.0000E-02  9.0000E-02  9.0000E-02  9.0000E-02  9.0000E-02  9.0000E-02
       9.0000E-02  0.1500      0.1500      0.1500      0.1500      0.1500      0.1500      0.1500      0.1500      9.0000E-02
       8.0000E-02  8.0000E-02  8.0000E-02  8.0000E-02  8.0000E-02  8.0000E-02  8.0000E-02  0.1500      0.1500      0.1500    
       8.0000E-02  8.0000E-02  8.0000E-02  8.0000E-02  8.0000E-02  8.0000E-02  8.0000E-02  8.0000E-02  8.0000E-02  9.0000E-02
       0.1500      0.1500      0.1500      9.0000E-02  9.0000E-02  9.0000E-02  9.0000E-02  9.0000E-02  9.0000E-02  0.1500    
       0.1500      0.1500      0.1500      0.1500      9.0000E-02  9.0000E-02  9.0000E-02   0.000       0.000    
  55    0.000      8.0000E-02  8.0000E-02  8.0000E-02  8.0000E-02  8.0000E-02  8.0000E-02  0.1500      0.1500      0.1500    
       0.1500      8.0000E-02  8.0000E-02  8.0000E-02  8.0000E-02  8.0000E-02  8.0000E-02  8.0000E-02  8.0000E-02  8.0000E-02
       8.0000E-02  8.0000E-02  9.0000E-02  9.0000E-02  9.0000E-02  9.0000E-02  9.0000E-02  9.0000E-02  9.0000E-02  9.0000E-02
       9.0000E-02  9.0000E-02  0.1500      0.1500      0.1500      0.1500      0.1500      0.1500      0.1500      9.0000E-02
       8.0000E-02  8.0000E-02  8.0000E-02  8.0000E-02  8.0000E-02  8.0000E-02  8.0000E-02  0.1500      0.1500      0.1500    
       8.0000E-02  8.0000E-02  8.0000E-02  8.0000E-02  8.0000E-02  8.0000E-02  8.0000E-02  8.0000E-02  8.0000E-02  9.0000E-02
       0.1500      0.1500      0.1500      9.0000E-02  9.0000E-02  9.0000E-02  9.0000E-02  9.0000E-02  9.0000E-02  0.1500    
       0.1500      0.1500      0.1500      0.1500      0.1500      9.0000E-02  9.0000E-02   0.000       0.000    
  56    0.000      8.0000E-02  8.0000E-02  8.0000E-02  8.0000E-02  8.0000E-02  0.1500      0.1500      0.1500      0.1500    
       0.1500      8.0000E-02  8.0000E-02  8.0000E-02  8.0000E-02  8.0000E-02  8.0000E-02  8.0000E-02  8.0000E-02  8.0000E-02
       8.0000E-02  8.0000E-02  8.0000E-02  9.0000E-02  9.0000E-02  9.0000E-02  9.0000E-02  9.0000E-02  9.0000E-02  9.0000E-02
       9.0000E-02  9.0000E-02  0.1500      0.1500      0.1500      0.1500      0.1500      0.1500      0.1500      9.0000E-02
       8.0000E-02  8.0000E-02  8.0000E-02  8.0000E-02  8.0000E-02  8.0000E-02  8.0000E-02  0.1500      0.1500      0.1500    
       8.0000E-02  8.0000E-02  8.0000E-02  8.0000E-02  8.0000E-02  8.0000E-02  8.0000E-02  8.0000E-02  8.0000E-02  9.0000E-02
       0.1500      0.1500      0.1500      9.0000E-02  9.0000E-02  8.0000E-02  8.0000E-02  8.0000E-02  9.0000E-02  9.0000E-02
       0.1500      0.1500      0.1500      0.1500      0.1500      9.0000E-02  9.0000E-02   0.000       0.000    
  57   8.0000E-02  8.0000E-02  8.0000E-02  8.0000E-02  8.0000E-02  0.1500      0.1500      0.1500      0.1500      8.0000E-02
       8.0000E-02  8.0000E-02  8.0000E-02  8.0000E-02  8.0000E-02  8.0000E-02  8.0000E-02  8.0000E-02  8.0000E-02  8.0000E-02
       8.0000E-02  8.0000E-02  8.0000E-02  8.0000E-02  8.0000E-02  8.0000E-02  9.0000E-02  9.0000E-02  9.0000E-02  9.0000E-02
       9.0000E-02  9.0000E-02  0.1500      0.1500      0.1500      0.1500      0.1500      0.1500      9.0000E-02  9.0000E-02
       8.0000E-02  8.0000E-02  8.0000E-02  8.0000E-02  8.0000E-02  8.0000E-02  8.0000E-02  0.1500      0.1500      0.1500    
       8.0000E-02  8.0000E-02  8.0000E-02  8.0000E-02  8.0000E-02  8.0000E-02  8.0000E-02  8.0000E-02  8.0000E-02  8.0000E-02
       9.0000E-02  0.1500      0.1500      9.0000E-02  9.0000E-02  8.0000E-02  8.0000E-02  8.0000E-02  9.0000E-02  9.0000E-02
       0.1500      0.1500      9.0000E-02  9.0000E-02  9.0000E-02  9.0000E-02  9.0000E-02   0.000       0.000    
  58   8.0000E-02  8.0000E-02  8.0000E-02  8.0000E-02  8.0000E-02  0.1500      8.0000E-02  8.0000E-02  8.0000E-02  8.0000E-02
       8.0000E-02  8.0000E-02  8.0000E-02  8.0000E-02  8.0000E-02  8.0000E-02  8.0000E-02  8.0000E-02  8.0000E-02  8.0000E-02
       8.0000E-02  8.0000E-02  8.0000E-02  8.0000E-02  8.0000E-02  8.0000E-02  8.0000E-02  9.0000E-02  9.0000E-02  9.0000E-02
       9.0000E-02  9.0000E-02  0.1500      0.1500      0.1500      0.1500      0.1500      0.1500      9.0000E-02  9.0000E-02
       8.0000E-02  8.0000E-02  8.0000E-02  8.0000E-02  8.0000E-02  8.0000E-02  8.0000E-02  8.0000E-02  0.1500      0.1500    
       0.1500      9.0000E-02  8.0000E-02  8.0000E-02  8.0000E-02  8.0000E-02  8.0000E-02  8.0000E-02  8.0000E-02  8.0000E-02
       9.0000E-02  0.1500      9.0000E-02  9.0000E-02  9.0000E-02  8.0000E-02  8.0000E-02  8.0000E-02  9.0000E-02  0.1500    
       0.1500      0.1500      9.0000E-02  9.0000E-02  9.0000E-02  9.0000E-02  9.0000E-02   0.000       0.000    
  59   8.0000E-02  8.0000E-02  8.0000E-02  8.0000E-02  8.0000E-02  8.0000E-02  8.0000E-02  8.0000E-02  8.0000E-02  8.0000E-02
       8.0000E-02  8.0000E-02  8.0000E-02  8.0000E-02  8.0000E-02  8.0000E-02  8.0000E-02  8.0000E-02  8.0000E-02  8.0000E-02
       8.0000E-02  8.0000E-02  8.0000E-02  8.0000E-02  8.0000E-02  8.0000E-02  8.0000E-02  8.0000E-02  9.0000E-02  9.0000E-02
       9.0000E-02  9.0000E-02  0.1500      0.1500      0.1500      0.1500      0.1500      0.1500      0.1500      9.0000E-02
       8.0000E-02  8.0000E-02  8.0000E-02  8.0000E-02  8.0000E-02  8.0000E-02  8.0000E-02  8.0000E-02  0.1500      8.0000E-02
       0.1500      9.0000E-02  8.0000E-02  8.0000E-02  8.0000E-02  8.0000E-02  8.0000E-02  8.0000E-02  8.0000E-02  8.0000E-02
       9.0000E-02  9.0000E-02  9.0000E-02  8.0000E-02  8.0000E-02  8.0000E-02  8.0000E-02  8.0000E-02  9.0000E-02  0.1500    
       0.1500      0.1500      9.0000E-02  9.0000E-02  9.0000E-02  9.0000E-02  9.0000E-02  9.0000E-02   0.000    
  60    0.000      8.0000E-02  8.0000E-02  8.0000E-02  8.0000E-02  8.0000E-02  8.0000E-02  8.0000E-02  8.0000E-02  8.0000E-02
       8.0000E-02  8.0000E-02  8.0000E-02   0.000       0.000       0.000      8.0000E-02  8.0000E-02  8.0000E-02  8.0000E-02
       8.0000E-02  8.0000E-02  8.0000E-02  8.0000E-02  8.0000E-02  8.0000E-02  8.0000E-02  8.0000E-02  8.0000E-02  9.0000E-02
       9.0000E-02  9.0000E-02  9.0000E-02  0.1500      0.1500      0.1500      0.1500      0.1500      0.1500      9.0000E-02
       8.0000E-02  8.0000E-02  8.0000E-02  8.0000E-02  8.0000E-02  8.0000E-02  8.0000E-02  8.0000E-02  8.0000E-02  8.0000E-02
       0.1500      9.0000E-02  8.0000E-02  8.0000E-02  8.0000E-02  8.0000E-02  8.0000E-02  8.0000E-02  8.0000E-02  9.0000E-02
       9.0000E-02  9.0000E-02  8.0000E-02  8.0000E-02  8.0000E-02  8.0000E-02  8.0000E-02  8.0000E-02  9.0000E-02  0.1500    
       0.1500      9.0000E-02  9.0000E-02  9.0000E-02  9.0000E-02  9.0000E-02  9.0000E-02  9.0000E-02  9.0000E-02
  61    0.000       0.000      8.0000E-02  8.0000E-02  8.0000E-02  8.0000E-02  8.0000E-02  8.0000E-02  8.0000E-02  8.0000E-02
       8.0000E-02   0.000       0.000       0.000       0.000       0.000       0.000      8.0000E-02  8.0000E-02  8.0000E-02
       8.0000E-02  8.0000E-02  8.0000E-02  8.0000E-02  8.0000E-02  8.0000E-02  8.0000E-02  8.0000E-02  8.0000E-02  8.0000E-02
       9.0000E-02  9.0000E-02  9.0000E-02  0.1500      0.1500      0.1500      0.1500      0.1500      0.1500      9.0000E-02
       8.0000E-02  8.0000E-02  8.0000E-02  8.0000E-02  8.0000E-02  8.0000E-02  8.0000E-02  8.0000E-02  8.0000E-02  8.0000E-02
       0.1500      0.1500      8.0000E-02  8.0000E-02  8.0000E-02  8.0000E-02  8.0000E-02  8.0000E-02  8.0000E-02  8.0000E-02
       8.0000E-02  8.0000E-02  8.0000E-02  8.0000E-02  8.0000E-02  8.0000E-02  8.0000E-02  8.0000E-02  9.0000E-02  0.1500    
       0.1500      9.0000E-02  9.0000E-02  9.0000E-02  9.0000E-02  9.0000E-02  9.0000E-02  9.0000E-02  9.0000E-02
  62    0.000       0.000       0.000      8.0000E-02   0.000       0.000       0.000       0.000       0.000       0.000    
        0.000       0.000       0.000       0.000       0.000       0.000       0.000       0.000       0.000      8.0000E-02
       8.0000E-02  8.0000E-02  8.0000E-02  8.0000E-02  8.0000E-02  8.0000E-02  8.0000E-02  8.0000E-02  8.0000E-02  8.0000E-02
       9.0000E-02  9.0000E-02  9.0000E-02  0.1500      0.1500      0.1500      0.1500      0.1500      0.1500      9.0000E-02
       8.0000E-02  8.0000E-02  8.0000E-02  8.0000E-02  8.0000E-02  8.0000E-02  8.0000E-02  8.0000E-02  8.0000E-02  8.0000E-02
       8.0000E-02  8.0000E-02  0.1500      8.0000E-02  8.0000E-02  8.0000E-02  8.0000E-02  8.0000E-02  8.0000E-02  8.0000E-02
       8.0000E-02  8.0000E-02  8.0000E-02  8.0000E-02  8.0000E-02  8.0000E-02  8.0000E-02  8.0000E-02  9.0000E-02  0.1500    
       9.0000E-02  9.0000E-02  9.0000E-02  9.0000E-02  9.0000E-02  9.0000E-02  9.0000E-02  8.0000E-02  8.0000E-02
  63    0.000       0.000       0.000       0.000       0.000       0.000       0.000       0.000       0.000       0.000    
        0.000       0.000       0.000       0.000       0.000       0.000       0.000       0.000       0.000      8.0000E-02
       8.0000E-02  8.0000E-02  8.0000E-02  8.0000E-02  8.0000E-02  8.0000E-02  8.0000E-02  8.0000E-02  8.0000E-02  8.0000E-02
       8.0000E-02  9.0000E-02  9.0000E-02  0.1500      0.1500      0.1500      0.1500      0.1500      0.1500      9.0000E-02
       9.0000E-02  8.0000E-02  8.0000E-02  8.0000E-02  8.0000E-02  8.0000E-02  8.0000E-02  8.0000E-02  8.0000E-02  8.0000E-02
       8.0000E-02  8.0000E-02  0.1500      0.1500      8.0000E-02  8.0000E-02  8.0000E-02  8.0000E-02  8.0000E-02  8.0000E-02
       8.0000E-02  8.0000E-02  8.0000E-02  8.0000E-02  8.0000E-02  8.0000E-02  8.0000E-02  8.0000E-02  9.0000E-02  9.0000E-02
       9.0000E-02  9.0000E-02  9.0000E-02  9.0000E-02  9.0000E-02  9.0000E-02  9.0000E-02  8.0000E-02  8.0000E-02
  64    0.000       0.000       0.000       0.000       0.000       0.000       0.000       0.000       0.000       0.000    
        0.000       0.000       0.000       0.000       0.000       0.000       0.000       0.000       0.000       0.000    
        0.000       0.000       0.000       0.000      8.0000E-02  8.0000E-02  8.0000E-02  8.0000E-02  8.0000E-02  8.0000E-02
       8.0000E-02  8.0000E-02  9.0000E-02  9.0000E-02  0.1500      0.1500      0.1500      0.1500      0.1500      0.1500    
       8.0000E-02  8.0000E-02  8.0000E-02  8.0000E-02  8.0000E-02  8.0000E-02  8.0000E-02  8.0000E-02  8.0000E-02  8.0000E-02
       8.0000E-02  8.0000E-02  9.0000E-02  0.1500      8.0000E-02  8.0000E-02  8.0000E-02  8.0000E-02  8.0000E-02  8.0000E-02
       8.0000E-02  8.0000E-02  8.0000E-02  8.0000E-02  8.0000E-02  8.0000E-02  8.0000E-02  9.0000E-02  9.0000E-02  9.0000E-02
       9.0000E-02  9.0000E-02  9.0000E-02  9.0000E-02  9.0000E-02  9.0000E-02  8.0000E-02  8.0000E-02  8.0000E-02
  65    0.000       0.000       0.000       0.000       0.000       0.000       0.000       0.000       0.000       0.000    
        0.000       0.000       0.000       0.000       0.000       0.000       0.000       0.000       0.000       0.000    
        0.000       0.000       0.000       0.000       0.000       0.000       0.000       0.000       0.000       0.000    
        0.000       0.000       0.000      9.0000E-02  0.1500      0.1500      0.1500      0.1500      0.1500      0.1500    
       8.0000E-02  8.0000E-02  8.0000E-02  8.0000E-02  8.0000E-02   0.000       0.000       0.000       0.000      8.0000E-02
       8.0000E-02  8.0000E-02  9.0000E-02  9.0000E-02  8.0000E-02  8.0000E-02  8.0000E-02  8.0000E-02  8.0000E-02  8.0000E-02
       8.0000E-02  8.0000E-02  8.0000E-02  8.0000E-02  8.0000E-02  8.0000E-02  8.0000E-02  9.0000E-02  9.0000E-02  9.0000E-02
       9.0000E-02  9.0000E-02  9.0000E-02  9.0000E-02  9.0000E-02  9.0000E-02  9.0000E-02  8.0000E-02  8.0000E-02
  66    0.000       0.000       0.000       0.000       0.000       0.000       0.000       0.000       0.000       0.000    
        0.000       0.000       0.000       0.000       0.000       0.000       0.000       0.000       0.000       0.000    
        0.000       0.000       0.000       0.000       0.000       0.000       0.000       0.000       0.000       0.000    
        0.000       0.000       0.000       0.000       0.000      9.0000E-02  9.0000E-02   0.000       0.000       0.000    
        0.000       0.000       0.000       0.000       0.000       0.000       0.000       0.000       0.000       0.000    
       8.0000E-02  8.0000E-02  9.0000E-02  9.0000E-02  9.0000E-02  8.0000E-02  8.0000E-02  8.0000E-02  8.0000E-02  8.0000E-02
       8.0000E-02  8.0000E-02  8.0000E-02  8.0000E-02  8.0000E-02  8.0000E-02  8.0000E-02  8.0000E-02  9.0000E-02  9.0000E-02
       9.0000E-02  9.0000E-02  9.0000E-02  9.0000E-02  9.0000E-02  9.0000E-02  9.0000E-02  8.0000E-02  8.0000E-02
  67    0.000       0.000       0.000       0.000       0.000       0.000       0.000       0.000       0.000       0.000    
        0.000       0.000       0.000       0.000       0.000       0.000       0.000       0.000       0.000       0.000    
        0.000       0.000       0.000       0.000       0.000       0.000       0.000       0.000       0.000       0.000    
        0.000       0.000       0.000       0.000       0.000       0.000       0.000       0.000       0.000       0.000    
        0.000       0.000       0.000       0.000       0.000       0.000       0.000       0.000       0.000       0.000    
        0.000       0.000      8.0000E-02  9.0000E-02  8.0000E-02  8.0000E-02  8.0000E-02  8.0000E-02  8.0000E-02  8.0000E-02
       8.0000E-02  8.0000E-02  8.0000E-02  8.0000E-02  8.0000E-02  8.0000E-02  8.0000E-02  8.0000E-02  9.0000E-02  9.0000E-02
       9.0000E-02   0.000       0.000       0.000       0.000       0.000       0.000       0.000       0.000    
  68    0.000       0.000       0.000       0.000       0.000       0.000       0.000       0.000       0.000       0.000    
        0.000       0.000       0.000       0.000       0.000       0.000       0.000       0.000       0.000       0.000    
        0.000       0.000       0.000       0.000       0.000       0.000       0.000       0.000       0.000       0.000    
        0.000       0.000       0.000       0.000       0.000       0.000       0.000       0.000       0.000       0.000    
        0.000       0.000       0.000       0.000       0.000       0.000       0.000       0.000       0.000       0.000    
        0.000       0.000       0.000      8.0000E-02  8.0000E-02  8.0000E-02  8.0000E-02  8.0000E-02  8.0000E-02  8.0000E-02
       8.0000E-02  8.0000E-02  8.0000E-02  8.0000E-02  8.0000E-02  8.0000E-02  8.0000E-02  9.0000E-02   0.000       0.000    
        0.000       0.000       0.000       0.000       0.000       0.000       0.000       0.000       0.000    
  69    0.000       0.000       0.000       0.000       0.000       0.000       0.000       0.000       0.000       0.000    
        0.000       0.000       0.000       0.000       0.000       0.000       0.000       0.000       0.000       0.000    
        0.000       0.000       0.000       0.000       0.000       0.000       0.000       0.000       0.000       0.000    
        0.000       0.000       0.000       0.000       0.000       0.000       0.000       0.000       0.000       0.000    
        0.000       0.000       0.000       0.000       0.000       0.000       0.000       0.000       0.000       0.000    
        0.000       0.000       0.000       0.000       0.000       0.000       0.000       0.000       0.000       0.000    
       8.0000E-02  8.0000E-02  8.0000E-02  8.0000E-02  9.0000E-02  9.0000E-02  9.0000E-02   0.000       0.000       0.000    
        0.000       0.000       0.000       0.000       0.000       0.000       0.000       0.000       0.000    
  70    0.000       0.000       0.000       0.000       0.000       0.000       0.000       0.000       0.000       0.000    
        0.000       0.000       0.000       0.000       0.000       0.000       0.000       0.000       0.000       0.000    
        0.000       0.000       0.000       0.000       0.000       0.000       0.000       0.000       0.000       0.000    
        0.000       0.000       0.000       0.000       0.000       0.000       0.000       0.000       0.000       0.000    
        0.000       0.000       0.000       0.000       0.000       0.000       0.000       0.000       0.000       0.000    
        0.000       0.000       0.000       0.000       0.000       0.000       0.000       0.000       0.000       0.000    
        0.000      8.0000E-02  8.0000E-02  8.0000E-02  9.0000E-02  9.0000E-02   0.000       0.000       0.000       0.000    
        0.000       0.000       0.000       0.000       0.000       0.000       0.000       0.000       0.000    
  71    0.000       0.000       0.000       0.000       0.000       0.000       0.000       0.000       0.000       0.000    
        0.000       0.000       0.000       0.000       0.000       0.000       0.000       0.000       0.000       0.000    
        0.000       0.000       0.000       0.000       0.000       0.000       0.000       0.000       0.000       0.000    
        0.000       0.000       0.000       0.000       0.000       0.000       0.000       0.000       0.000       0.000    
        0.000       0.000       0.000       0.000       0.000       0.000       0.000       0.000       0.000       0.000    
        0.000       0.000       0.000       0.000       0.000       0.000       0.000       0.000       0.000       0.000    
        0.000       0.000      8.0000E-02  8.0000E-02   0.000       0.000       0.000       0.000       0.000       0.000    
        0.000       0.000       0.000       0.000       0.000       0.000       0.000       0.000       0.000    



              HYD. COND. ALONG ROWS FOR LAYER   3
 READING ON UNIT   12 WITH FORMAT: (FREE)              

            1           2           3           4           5           6           7           8           9          10
           11          12          13          14          15          16          17          18          19          20
           21          22          23          24          25          26          27          28          29          30
           31          32          33          34          35          36          37          38          39          40
           41          42          43          44          45          46          47          48          49          50
           51          52          53          54          55          56          57          58          59          60
           61          62          63          64          65          66          67          68          69          70
           71          72          73          74          75          76          77          78          79
 ........................................................................................................................
   1    0.000       0.000       0.000       0.000       0.000       0.000       0.000       0.000       0.000       0.000    
        0.000       0.000       0.000       0.000       0.000       0.000       0.000       0.000       0.000       0.000    
        0.000       0.000       0.000       0.000       0.000       0.000       0.000       0.000       0.000       0.000    
        0.000       0.000       0.000       0.000       0.000       0.000       0.000       0.000       0.000       0.000    
        0.000       0.000       0.000       0.000       0.000       0.000       0.000       0.000       0.000       0.000    
        0.000      4.5000E-04  4.5000E-04   0.000       0.000       0.000       0.000       0.000       0.000       0.000    
        0.000       0.000       0.000       0.000       0.000       0.000       0.000       0.000       0.000       0.000    
        0.000       0.000       0.000       0.000       0.000       0.000       0.000       0.000       0.000    
   2    0.000       0.000       0.000       0.000       0.000       0.000       0.000       0.000       0.000       0.000    
        0.000       0.000       0.000       0.000       0.000       0.000       0.000       0.000       0.000       0.000    
        0.000       0.000       0.000       0.000       0.000       0.000       0.000       0.000       0.000       0.000    
        0.000       0.000       0.000       0.000       0.000       0.000       0.000       0.000       0.000       0.000    
        0.000       0.000       0.000       0.000       0.000       0.000       0.000       0.000       0.000       0.000    
        0.000      4.5000E-04  2.7000E-03  2.7000E-03   0.000       0.000       0.000       0.000       0.000       0.000    
        0.000       0.000       0.000       0.000       0.000       0.000       0.000       0.000       0.000       0.000    
        0.000       0.000       0.000       0.000       0.000       0.000       0.000       0.000       0.000    
   3    0.000       0.000       0.000       0.000       0.000       0.000       0.000       0.000       0.000       0.000    
        0.000       0.000       0.000       0.000       0.000       0.000       0.000       0.000       0.000       0.000    
        0.000       0.000       0.000       0.000       0.000       0.000       0.000       0.000       0.000       0.000    
        0.000       0.000       0.000       0.000       0.000       0.000       0.000       0.000       0.000       0.000    
        0.000       0.000       0.000       0.000       0.000       0.000       0.000       0.000       0.000       0.000    
        0.000      4.5000E-04  2.7000E-03  9.0000E-03   0.000       0.000       0.000       0.000       0.000       0.000    
        0.000       0.000       0.000       0.000       0.000       0.000       0.000       0.000       0.000       0.000    
        0.000       0.000       0.000       0.000       0.000       0.000       0.000       0.000       0.000    
   4    0.000       0.000       0.000       0.000       0.000       0.000       0.000       0.000       0.000       0.000    
        0.000       0.000       0.000       0.000       0.000       0.000       0.000       0.000       0.000       0.000    
        0.000       0.000       0.000       0.000       0.000       0.000       0.000       0.000       0.000       0.000    
        0.000       0.000       0.000       0.000       0.000       0.000       0.000       0.000       0.000       0.000    
        0.000       0.000       0.000       0.000       0.000       0.000       0.000       0.000       0.000       0.000    
        0.000      2.7000E-03  2.7000E-03  9.0000E-03  9.0000E-03   0.000       0.000       0.000       0.000       0.000    
        0.000       0.000       0.000       0.000       0.000       0.000       0.000       0.000       0.000       0.000    
        0.000       0.000       0.000       0.000       0.000       0.000       0.000       0.000       0.000    
   5    0.000       0.000       0.000       0.000       0.000       0.000       0.000       0.000       0.000       0.000    
        0.000       0.000       0.000       0.000       0.000       0.000       0.000       0.000       0.000       0.000    
        0.000       0.000       0.000       0.000       0.000       0.000       0.000       0.000       0.000       0.000    
        0.000       0.000       0.000       0.000       0.000       0.000       0.000       0.000       0.000       0.000    
        0.000       0.000       0.000       0.000       0.000       0.000       0.000       0.000       0.000       0.000    
        0.000      2.7000E-03  2.7000E-03  2.7000E-03  9.0000E-03  2.7000E-03  2.7000E-03   0.000       0.000       0.000    
        0.000       0.000       0.000       0.000       0.000       0.000       0.000       0.000       0.000       0.000    
        0.000       0.000       0.000       0.000       0.000       0.000       0.000       0.000       0.000    
   6    0.000       0.000       0.000       0.000       0.000       0.000       0.000       0.000       0.000       0.000    
        0.000       0.000       0.000       0.000       0.000       0.000       0.000       0.000       0.000       0.000    
        0.000       0.000       0.000       0.000       0.000       0.000       0.000       0.000       0.000       0.000    
        0.000       0.000       0.000       0.000       0.000       0.000       0.000       0.000       0.000       0.000    
        0.000       0.000       0.000       0.000       0.000       0.000       0.000       0.000       0.000       0.000    
        0.000      2.7000E-03  2.7000E-03  2.7000E-03  9.0000E-03  9.0000E-03  2.7000E-03  2.7000E-03  2.7000E-03   0.000    
        0.000       0.000       0.000      2.7000E-03  2.7000E-03   0.000       0.000       0.000       0.000       0.000    
        0.000       0.000       0.000       0.000       0.000       0.000       0.000       0.000       0.000    
   7    0.000       0.000       0.000       0.000       0.000       0.000       0.000       0.000       0.000       0.000    
        0.000       0.000       0.000       0.000       0.000       0.000       0.000       0.000       0.000       0.000    
        0.000       0.000       0.000       0.000       0.000       0.000       0.000       0.000       0.000       0.000    
        0.000       0.000       0.000       0.000       0.000       0.000       0.000       0.000       0.000       0.000    
        0.000       0.000       0.000       0.000       0.000       0.000       0.000       0.000       0.000       0.000    
        0.000      2.7000E-03  2.7000E-03  2.7000E-03  9.0000E-03  9.0000E-03  9.0000E-03  2.7000E-03  2.7000E-03  2.7000E-03
       2.7000E-03  2.7000E-03  2.7000E-03  2.7000E-03  2.7000E-03  2.7000E-03   0.000       0.000       0.000       0.000    
        0.000       0.000       0.000       0.000       0.000       0.000       0.000       0.000       0.000    
   8    0.000       0.000       0.000       0.000       0.000       0.000       0.000       0.000       0.000       0.000    
        0.000       0.000       0.000       0.000       0.000       0.000       0.000       0.000       0.000       0.000    
        0.000       0.000       0.000       0.000       0.000       0.000       0.000       0.000       0.000       0.000    
        0.000       0.000       0.000       0.000       0.000       0.000       0.000       0.000       0.000       0.000    
        0.000       0.000       0.000       0.000       0.000       0.000       0.000       0.000       0.000       0.000    
        0.000      2.7000E-03  2.7000E-03  2.7000E-03  9.0000E-03  9.0000E-03  9.0000E-03  2.7000E-03  2.7000E-03  2.7000E-03
       2.7000E-03  2.7000E-03  2.7000E-03  2.7000E-03  2.7000E-03  2.7000E-03  2.7000E-03  2.7000E-03   0.000       0.000    
        0.000       0.000       0.000       0.000       0.000       0.000       0.000       0.000       0.000    
   9    0.000       0.000       0.000       0.000       0.000       0.000       0.000       0.000       0.000       0.000    
        0.000       0.000       0.000       0.000       0.000       0.000       0.000       0.000       0.000       0.000    
        0.000       0.000       0.000       0.000       0.000       0.000       0.000       0.000       0.000       0.000    
        0.000       0.000       0.000       0.000       0.000       0.000       0.000       0.000       0.000       0.000    
        0.000       0.000       0.000       0.000       0.000       0.000       0.000       0.000       0.000       0.000    
       9.0000E-04  2.7000E-03  2.7000E-03  2.7000E-03  9.0000E-03  9.0000E-03  9.0000E-03  2.7000E-03  2.7000E-03  2.7000E-03
       2.7000E-03  2.7000E-03  2.7000E-03  2.7000E-03  2.7000E-03  2.7000E-03  2.7000E-03  2.7000E-03  2.7000E-03   0.000    
        0.000       0.000       0.000       0.000       0.000       0.000       0.000       0.000       0.000    
  10    0.000       0.000       0.000       0.000       0.000       0.000       0.000       0.000       0.000       0.000    
        0.000       0.000       0.000       0.000       0.000       0.000       0.000       0.000       0.000       0.000    
        0.000       0.000       0.000       0.000       0.000       0.000       0.000       0.000       0.000       0.000    
        0.000       0.000       0.000       0.000       0.000       0.000       0.000       0.000       0.000       0.000    
        0.000       0.000       0.000       0.000       0.000       0.000       0.000       0.000       0.000      2.7000E-03
       2.7000E-03  2.7000E-03  2.7000E-03  2.7000E-03  2.7000E-03  9.0000E-03  9.0000E-03  9.0000E-03  2.7000E-03  2.7000E-03
       2.7000E-03  2.7000E-03  2.7000E-03  2.7000E-03  2.7000E-03  2.7000E-03  2.7000E-03  2.7000E-03  2.7000E-03  2.7000E-03
        0.000       0.000       0.000       0.000       0.000       0.000       0.000       0.000       0.000    
  11    0.000       0.000       0.000       0.000       0.000       0.000       0.000       0.000       0.000       0.000    
        0.000       0.000       0.000       0.000       0.000       0.000       0.000       0.000       0.000       0.000    
        0.000       0.000       0.000       0.000       0.000       0.000       0.000       0.000       0.000       0.000    
        0.000       0.000       0.000       0.000       0.000       0.000       0.000       0.000       0.000       0.000    
        0.000       0.000       0.000       0.000       0.000       0.000       0.000       0.000      2.7000E-03  2.7000E-03
       2.7000E-03  2.7000E-03  2.7000E-03  2.7000E-03  2.7000E-03  9.0000E-03  9.0000E-03  9.0000E-03  2.7000E-03  2.7000E-03
       2.7000E-03  2.7000E-03  2.7000E-03  2.7000E-03  2.7000E-03  2.7000E-03  2.7000E-03  2.7000E-03  2.7000E-03  2.7000E-03
       2.7000E-03   0.000       0.000       0.000       0.000       0.000       0.000       0.000       0.000    
  12    0.000       0.000       0.000       0.000       0.000       0.000       0.000       0.000       0.000       0.000    
        0.000       0.000       0.000       0.000       0.000       0.000       0.000       0.000       0.000       0.000    
        0.000       0.000       0.000       0.000       0.000       0.000       0.000       0.000       0.000       0.000    
        0.000       0.000       0.000       0.000       0.000       0.000       0.000       0.000       0.000       0.000    
        0.000      9.0000E-04  9.0000E-04   0.000       0.000       0.000       0.000      9.0000E-04  2.7000E-03  2.7000E-03
       2.7000E-03  2.7000E-03  2.7000E-03  2.7000E-03  2.7000E-03  9.0000E-03  9.0000E-03  9.0000E-03  2.7000E-03  2.7000E-03
       2.7000E-03  2.7000E-03  2.7000E-03  2.7000E-03  2.7000E-03  2.7000E-03  2.7000E-03  2.7000E-03  2.7000E-03  2.7000E-03
       2.7000E-03   0.000       0.000       0.000       0.000       0.000       0.000       0.000       0.000    
  13    0.000       0.000       0.000       0.000       0.000       0.000       0.000       0.000       0.000       0.000    
        0.000       0.000       0.000       0.000       0.000       0.000       0.000       0.000       0.000       0.000    
        0.000       0.000       0.000       0.000       0.000       0.000       0.000       0.000       0.000       0.000    
        0.000       0.000       0.000       0.000       0.000       0.000       0.000       0.000      9.0000E-04  9.0000E-04
       9.0000E-04  9.0000E-04  9.0000E-04  9.0000E-04  9.0000E-04  9.0000E-04  9.0000E-04  9.0000E-04  2.7000E-03  2.7000E-03
       2.7000E-03  2.7000E-03  2.7000E-03  2.7000E-03  2.7000E-03  9.0000E-03  9.0000E-03  9.0000E-03  2.7000E-03  2.7000E-03
       2.7000E-03  2.7000E-03  2.7000E-03  2.7000E-03  2.7000E-03  2.7000E-03  2.7000E-03  2.7000E-03  2.7000E-03  2.7000E-03
       2.7000E-03  2.7000E-03   0.000       0.000       0.000       0.000       0.000       0.000       0.000    
  14    0.000       0.000       0.000       0.000       0.000       0.000       0.000       0.000       0.000       0.000    
        0.000       0.000       0.000       0.000       0.000       0.000       0.000       0.000       0.000       0.000    
        0.000       0.000       0.000       0.000       0.000       0.000       0.000       0.000       0.000       0.000    
        0.000       0.000       0.000       0.000       0.000       0.000       0.000       0.000      9.0000E-04  9.0000E-04
       9.0000E-04  9.0000E-04  9.0000E-04  9.0000E-04  2.7000E-03  2.7000E-03  2.7000E-03  2.7000E-03  2.7000E-03  2.7000E-03
       2.7000E-03  2.7000E-03  2.7000E-03  2.7000E-03  2.7000E-03  9.0000E-03  9.0000E-03  9.0000E-03  9.0000E-03  9.0000E-03
       2.7000E-03  2.7000E-03  2.7000E-03  2.7000E-03  2.7000E-03  2.7000E-03  2.7000E-03  9.0000E-03  2.7000E-03  2.7000E-03
       2.7000E-03  2.7000E-03  2.7000E-03   0.000       0.000       0.000       0.000       0.000       0.000    
  15    0.000       0.000       0.000       0.000       0.000       0.000       0.000       0.000       0.000       0.000    
        0.000       0.000       0.000       0.000       0.000       0.000       0.000       0.000       0.000       0.000    
        0.000       0.000       0.000       0.000       0.000       0.000       0.000       0.000       0.000       0.000    
        0.000       0.000       0.000       0.000       0.000       0.000       0.000      9.0000E-04  9.0000E-04  9.0000E-04
       2.7000E-03  2.7000E-03  2.7000E-03  2.7000E-03  2.7000E-03  2.7000E-03  2.7000E-03  2.7000E-03  2.7000E-03  2.7000E-03
       2.7000E-03  2.7000E-03  2.7000E-03  2.7000E-03  2.7000E-03  2.7000E-03  9.0000E-03  9.0000E-03  9.0000E-03  9.0000E-03
       9.0000E-03  2.7000E-03  2.7000E-03  9.0000E-03  9.0000E-03  9.0000E-03  9.0000E-03  9.0000E-03  9.0000E-03  2.7000E-03
       2.7000E-03  2.7000E-03  2.7000E-03   0.000       0.000       0.000       0.000       0.000       0.000    
  16    0.000       0.000       0.000       0.000       0.000       0.000       0.000       0.000       0.000       0.000    
        0.000       0.000       0.000       0.000       0.000       0.000       0.000       0.000       0.000       0.000    
        0.000       0.000       0.000       0.000       0.000       0.000       0.000       0.000       0.000       0.000    
        0.000       0.000       0.000       0.000       0.000       0.000      9.0000E-04  9.0000E-04  9.0000E-04  9.0000E-04
       9.0000E-04  2.7000E-03  2.7000E-03  2.7000E-03  2.7000E-03  2.7000E-03  2.7000E-03  2.7000E-03  2.7000E-03  2.7000E-03
       2.7000E-03  2.7000E-03  2.7000E-03  2.7000E-03  2.7000E-03  2.7000E-03  9.0000E-03  9.0000E-03  9.0000E-03  9.0000E-03
       9.0000E-03  9.0000E-03  9.0000E-03  9.0000E-03  9.0000E-03  9.0000E-03  9.0000E-03  9.0000E-03  9.0000E-03  2.7000E-03
       2.7000E-03  2.7000E-03  2.7000E-03  2.7000E-03   0.000       0.000       0.000       0.000       0.000    
  17    0.000       0.000       0.000       0.000       0.000       0.000       0.000       0.000       0.000       0.000    
        0.000       0.000       0.000       0.000       0.000       0.000       0.000       0.000       0.000       0.000    
        0.000       0.000       0.000       0.000       0.000       0.000       0.000       0.000       0.000       0.000    
        0.000       0.000       0.000       0.000       0.000      9.0000E-04  9.0000E-04  9.0000E-04  9.0000E-04  9.0000E-04
       9.0000E-04  2.7000E-03  2.7000E-03  2.7000E-03  2.7000E-03  2.7000E-03  2.7000E-03  2.7000E-03  2.7000E-03  2.7000E-03
       2.7000E-03  2.7000E-03  2.7000E-03  2.7000E-03  2.7000E-03  2.7000E-03  9.0000E-03  9.0000E-03  9.0000E-03  9.0000E-03
       9.0000E-03  9.0000E-03  9.0000E-03  9.0000E-03  9.0000E-03  9.0000E-03  9.0000E-03  9.0000E-03  9.0000E-03  2.7000E-03
       2.7000E-03  2.7000E-03  2.7000E-03  2.7000E-03   0.000       0.000       0.000       0.000       0.000    
  18    0.000       0.000       0.000       0.000       0.000       0.000       0.000       0.000       0.000       0.000    
        0.000       0.000       0.000       0.000       0.000       0.000       0.000       0.000       0.000       0.000    
        0.000       0.000       0.000       0.000       0.000       0.000       0.000       0.000       0.000       0.000    
        0.000       0.000       0.000       0.000      9.0000E-04  9.0000E-04  9.0000E-04  9.0000E-04  9.0000E-04  9.0000E-04
       9.0000E-04  9.0000E-04  9.0000E-04  2.7000E-03  2.7000E-03  2.7000E-03  2.7000E-03  2.7000E-03  2.7000E-03  2.7000E-03
       2.7000E-03  2.7000E-03  2.7000E-03  2.7000E-03  2.7000E-03  2.7000E-03  9.0000E-03  9.0000E-03  9.0000E-03  9.0000E-03
       9.0000E-03  9.0000E-03  9.0000E-03  9.0000E-03  9.0000E-03  9.0000E-03  9.0000E-03  9.0000E-03  9.0000E-03  9.0000E-03
       2.7000E-03  2.7000E-03  2.7000E-03  2.7000E-03   0.000       0.000       0.000       0.000       0.000    
  19    0.000       0.000       0.000       0.000       0.000       0.000       0.000       0.000       0.000       0.000    
        0.000       0.000       0.000       0.000       0.000       0.000       0.000       0.000       0.000       0.000    
        0.000       0.000       0.000       0.000       0.000       0.000       0.000       0.000       0.000       0.000    
        0.000       0.000       0.000      9.0000E-04  9.0000E-04  9.0000E-04  9.0000E-04  9.0000E-04  9.0000E-04  9.0000E-04
       9.0000E-04  9.0000E-04  9.0000E-04  9.0000E-04  2.7000E-03  2.7000E-03  2.7000E-03  2.7000E-03  2.7000E-03  2.7000E-03
       2.7000E-03  2.7000E-03  2.7000E-03  2.7000E-03  2.7000E-03  2.7000E-03  2.7000E-03  9.0000E-03  9.0000E-03  9.0000E-03
       9.0000E-03  9.0000E-03  9.0000E-03  9.0000E-03  9.0000E-03  9.0000E-03  9.0000E-03  9.0000E-03  9.0000E-03  9.0000E-03
       2.7000E-03  2.7000E-03  2.7000E-03  2.7000E-03   0.000       0.000       0.000       0.000       0.000    
  20    0.000       0.000       0.000       0.000       0.000       0.000       0.000       0.000       0.000       0.000    
        0.000       0.000       0.000       0.000       0.000       0.000       0.000       0.000       0.000       0.000    
        0.000       0.000       0.000       0.000       0.000       0.000       0.000       0.000       0.000       0.000    
        0.000       0.000       0.000      4.5000E-04  9.0000E-04  9.0000E-04  9.0000E-04  9.0000E-04  9.0000E-04  9.0000E-04
       9.0000E-04  9.0000E-04  9.0000E-04  9.0000E-04  2.7000E-03  2.7000E-03  2.7000E-03  2.7000E-03  2.7000E-03  2.7000E-03
       2.7000E-03  2.7000E-03  2.7000E-03  2.7000E-03  2.7000E-03  2.7000E-03  2.7000E-03  9.0000E-03  9.0000E-03  9.0000E-03
       9.0000E-03  9.0000E-03  9.0000E-03  9.0000E-03  9.0000E-03  9.0000E-03  9.0000E-03  9.0000E-03  9.0000E-03  9.0000E-03
       2.7000E-03  2.7000E-03  2.7000E-03  2.7000E-03   0.000       0.000       0.000       0.000       0.000    
  21    0.000       0.000       0.000       0.000       0.000       0.000       0.000       0.000       0.000       0.000    
        0.000       0.000       0.000       0.000       0.000       0.000       0.000       0.000       0.000       0.000    
        0.000       0.000       0.000       0.000       0.000       0.000       0.000       0.000       0.000       0.000    
        0.000       0.000      4.5000E-04  4.5000E-04  9.0000E-04  4.5000E-04  9.0000E-04  9.0000E-04  9.0000E-04  9.0000E-04
       9.0000E-04  9.0000E-04  9.0000E-04  9.0000E-04  9.0000E-04  2.7000E-03  2.7000E-03  2.7000E-03  2.7000E-03  2.7000E-03
       2.7000E-03  2.7000E-03  2.7000E-03  2.7000E-03  2.7000E-03  2.7000E-03  2.7000E-03  2.7000E-03  9.0000E-03  9.0000E-03
       9.0000E-03  9.0000E-03  9.0000E-03  9.0000E-03  9.0000E-03  9.0000E-03  9.0000E-03  9.0000E-03  9.0000E-03  2.7000E-03
       2.7000E-03  2.7000E-03  2.7000E-03  2.7000E-03  2.7000E-03   0.000       0.000       0.000       0.000    
  22    0.000       0.000       0.000       0.000       0.000       0.000       0.000       0.000       0.000       0.000    
        0.000       0.000       0.000       0.000       0.000       0.000       0.000       0.000       0.000       0.000    
        0.000       0.000       0.000       0.000       0.000       0.000       0.000       0.000       0.000       0.000    
        0.000       0.000      4.5000E-04  4.5000E-04  4.5000E-04  4.5000E-04  9.0000E-04  9.0000E-04  9.0000E-04  9.0000E-04
       9.0000E-04  9.0000E-04  9.0000E-04  9.0000E-04  9.0000E-04  2.7000E-03  2.7000E-03  2.7000E-03  2.7000E-03  2.7000E-03
       2.7000E-03  2.7000E-03  2.7000E-03  2.7000E-03  2.7000E-03  2.7000E-03  2.7000E-03  2.7000E-03  2.7000E-03  2.7000E-03
       2.7000E-03  9.0000E-03  9.0000E-03  9.0000E-03  9.0000E-03  9.0000E-03  9.0000E-03  9.0000E-03  9.0000E-03  2.7000E-03
       2.7000E-03  2.7000E-03  2.7000E-03  2.7000E-03   0.000       0.000       0.000       0.000       0.000    
  23    0.000       0.000       0.000       0.000       0.000       0.000       0.000       0.000       0.000       0.000    
        0.000       0.000       0.000       0.000       0.000       0.000       0.000       0.000       0.000       0.000    
        0.000       0.000       0.000       0.000       0.000       0.000       0.000       0.000       0.000       0.000    
        0.000      4.5000E-04  4.5000E-04  4.5000E-04  4.5000E-04  9.0000E-04  9.0000E-04  9.0000E-04  9.0000E-04  9.0000E-04
       9.0000E-04  9.0000E-04  9.0000E-04  9.0000E-04  9.0000E-04  2.7000E-03  2.7000E-03  9.0000E-03  2.7000E-03  2.7000E-03
       2.7000E-03  2.7000E-03  2.7000E-03  2.7000E-03  2.7000E-03  2.7000E-03  2.7000E-03  2.7000E-03  2.7000E-03  2.7000E-03
       2.7000E-03  2.7000E-03  9.0000E-03  9.0000E-03  9.0000E-03  9.0000E-03  9.0000E-03  9.0000E-03  9.0000E-03  2.7000E-03
       2.7000E-03   0.000       0.000       0.000       0.000       0.000       0.000       0.000       0.000    
  24    0.000       0.000       0.000       0.000       0.000       0.000       0.000       0.000       0.000       0.000    
        0.000       0.000       0.000       0.000       0.000       0.000       0.000       0.000       0.000       0.000    
        0.000       0.000       0.000       0.000       0.000       0.000       0.000       0.000      4.5000E-04  4.5000E-04
       4.5000E-04  4.5000E-04  4.5000E-04  4.5000E-04  4.5000E-04  9.0000E-04  9.0000E-04  9.0000E-04  9.0000E-04  9.0000E-04
       9.0000E-04  9.0000E-04  9.0000E-04  9.0000E-04  9.0000E-04  2.7000E-03  2.7000E-03  9.0000E-03  9.0000E-03  2.7000E-03
       2.7000E-03  2.7000E-03  2.7000E-03  2.7000E-03  2.7000E-03  2.7000E-03  2.7000E-03  2.7000E-03  2.7000E-03  2.7000E-03
       2.7000E-03  2.7000E-03  2.7000E-03  9.0000E-03  9.0000E-03  9.0000E-03  9.0000E-03  9.0000E-03  9.0000E-03  2.7000E-03
       2.7000E-03   0.000       0.000       0.000       0.000       0.000       0.000       0.000       0.000    
  25    0.000       0.000       0.000       0.000       0.000       0.000       0.000       0.000       0.000       0.000    
        0.000       0.000       0.000       0.000       0.000       0.000       0.000       0.000       0.000       0.000    
        0.000       0.000       0.000       0.000       0.000       0.000       0.000      4.5000E-04  4.5000E-04  4.5000E-04
       4.5000E-04  4.5000E-04  4.5000E-04  4.5000E-04  9.0000E-04  9.0000E-04  9.0000E-04  9.0000E-04  9.0000E-04  9.0000E-04
       9.0000E-04  9.0000E-04  9.0000E-04  9.0000E-04  2.7000E-03  2.7000E-03  2.7000E-03  9.0000E-03  9.0000E-03  2.7000E-03
       2.7000E-03  2.7000E-03  2.7000E-03  2.7000E-03  2.7000E-03  2.7000E-03  2.7000E-03  2.7000E-03  2.7000E-03  2.7000E-03
       2.7000E-03  2.7000E-03  2.7000E-03  2.7000E-03  2.7000E-03  9.0000E-03  9.0000E-03  9.0000E-03  9.0000E-03  2.7000E-03
       2.7000E-03   0.000       0.000       0.000       0.000       0.000       0.000       0.000       0.000    
  26    0.000       0.000       0.000       0.000       0.000       0.000       0.000       0.000       0.000       0.000    
        0.000       0.000       0.000       0.000       0.000       0.000       0.000       0.000       0.000       0.000    
        0.000       0.000       0.000       0.000       0.000      4.5000E-04  4.5000E-04  4.5000E-04  4.5000E-04  4.5000E-04
       4.5000E-04  4.5000E-04  4.5000E-04  9.0000E-04  9.0000E-04  9.0000E-04  9.0000E-04  9.0000E-04  9.0000E-04  9.0000E-04
       9.0000E-04  9.0000E-04  2.7000E-03  2.7000E-03  2.7000E-03  2.7000E-03  2.7000E-03  2.7000E-03  9.0000E-03  9.0000E-03
       9.0000E-03  2.7000E-03  2.7000E-03  2.7000E-03  2.7000E-03  2.7000E-03  2.7000E-03  2.7000E-03  2.7000E-03  2.7000E-03
       2.7000E-03  2.7000E-03  2.7000E-03  2.7000E-03  2.7000E-03  9.0000E-03  9.0000E-03  9.0000E-03  9.0000E-03  2.7000E-03
       2.7000E-03   0.000       0.000       0.000       0.000       0.000       0.000       0.000       0.000    
  27    0.000       0.000       0.000       0.000       0.000       0.000       0.000       0.000       0.000       0.000    
        0.000       0.000       0.000       0.000       0.000       0.000       0.000       0.000       0.000       0.000    
        0.000       0.000       0.000       0.000      4.5000E-04  4.5000E-04  4.5000E-04  4.5000E-04  4.5000E-04  4.5000E-04
       4.5000E-04  4.5000E-04  9.0000E-04  9.0000E-04  9.0000E-04  9.0000E-04  9.0000E-04  9.0000E-04  9.0000E-04  9.0000E-04
       9.0000E-04  2.7000E-03  2.7000E-03  2.7000E-03  2.7000E-03  2.7000E-03  2.7000E-03  2.7000E-03  2.7000E-03  9.0000E-03
       9.0000E-03  2.7000E-03  2.7000E-03  2.7000E-03  2.7000E-03  2.7000E-03  2.7000E-03  2.7000E-03  2.7000E-03  2.7000E-03
       2.7000E-03  2.7000E-03  2.7000E-03  2.7000E-03  2.7000E-03  9.0000E-03  9.0000E-03  9.0000E-03  9.0000E-03  9.0000E-03
       2.7000E-03   0.000       0.000       0.000       0.000       0.000       0.000       0.000       0.000    
  28    0.000       0.000       0.000       0.000       0.000       0.000       0.000       0.000       0.000       0.000    
        0.000       0.000       0.000       0.000       0.000       0.000       0.000       0.000       0.000       0.000    
        0.000       0.000       0.000      4.5000E-04  4.5000E-04  4.5000E-04  4.5000E-04  4.5000E-04  4.5000E-04  4.5000E-04
       4.5000E-04  9.0000E-04  9.0000E-04  9.0000E-04  9.0000E-04  9.0000E-04  9.0000E-04  9.0000E-04  2.7000E-03  2.7000E-03
       2.7000E-03  2.7000E-03  2.7000E-03  2.7000E-03  2.7000E-03  2.7000E-03  2.7000E-03  2.7000E-03  2.7000E-03  2.7000E-03
       9.0000E-03  9.0000E-03  2.7000E-03  2.7000E-03  2.7000E-03  2.7000E-03  2.7000E-03  2.7000E-03  2.7000E-03  2.7000E-03
       2.7000E-03  2.7000E-03  2.7000E-03  2.7000E-03  2.7000E-03  2.7000E-03  9.0000E-03  9.0000E-03  2.7000E-02  9.0000E-03
       2.7000E-03  2.7000E-03   0.000       0.000       0.000       0.000       0.000       0.000       0.000    
  29    0.000       0.000       0.000       0.000       0.000       0.000       0.000       0.000       0.000       0.000    
        0.000       0.000       0.000       0.000       0.000       0.000       0.000       0.000       0.000       0.000    
        0.000      4.5000E-04  4.5000E-04  4.5000E-04  4.5000E-04  4.5000E-04  4.5000E-04  4.5000E-04  4.5000E-04  9.0000E-04
       9.0000E-04  9.0000E-04  9.0000E-04  9.0000E-04  9.0000E-04  9.0000E-04  9.0000E-04  2.7000E-03  2.7000E-03  2.7000E-03
       2.7000E-03  2.7000E-03  2.7000E-03  2.7000E-03  2.7000E-03  2.7000E-03  2.7000E-03  2.7000E-03  2.7000E-03  2.7000E-03
       9.0000E-03  9.0000E-03  2.7000E-03  2.7000E-03  2.7000E-03  2.7000E-03  2.7000E-03  2.7000E-03  2.7000E-03  2.7000E-03
       2.7000E-03  2.7000E-03  2.7000E-03  2.7000E-03  2.7000E-03  2.7000E-03  9.0000E-03  9.0000E-03  2.7000E-02  9.0000E-03
       2.7000E-03  2.7000E-03   0.000       0.000       0.000       0.000       0.000       0.000       0.000    
  30    0.000       0.000       0.000       0.000       0.000       0.000       0.000       0.000       0.000       0.000    
        0.000       0.000       0.000       0.000       0.000       0.000       0.000       0.000       0.000      4.5000E-04
       4.5000E-04  4.5000E-04  4.5000E-04  4.5000E-04  4.5000E-04  4.5000E-04  4.5000E-04  9.0000E-04  9.0000E-04  9.0000E-04
       9.0000E-04  9.0000E-04  9.0000E-04  9.0000E-04  9.0000E-04  9.0000E-04  9.0000E-04  2.7000E-03  2.7000E-03  2.7000E-03
       2.7000E-03  2.7000E-03  2.7000E-03  2.7000E-03  2.7000E-03  2.7000E-03  2.7000E-03  2.7000E-03  2.7000E-03  2.7000E-03
       9.0000E-03  9.0000E-03  2.7000E-03  2.7000E-03  2.7000E-03  2.7000E-03  2.7000E-03  2.7000E-03  2.7000E-03  2.7000E-03
       2.7000E-03  2.7000E-03  2.7000E-03  2.7000E-03  2.7000E-03  2.7000E-03  9.0000E-03  9.0000E-03  2.7000E-02  9.0000E-03
       2.7000E-03  2.7000E-03   0.000       0.000       0.000       0.000       0.000       0.000       0.000    
  31    0.000       0.000       0.000       0.000       0.000       0.000       0.000       0.000       0.000       0.000    
        0.000       0.000       0.000       0.000       0.000       0.000       0.000       0.000      4.5000E-04  4.5000E-04
       4.5000E-04  4.5000E-04  4.5000E-04  9.0000E-04  9.0000E-04  9.0000E-04  9.0000E-04  9.0000E-04  9.0000E-04  9.0000E-04
       9.0000E-04  9.0000E-04  9.0000E-04  9.0000E-04  9.0000E-04  9.0000E-04  2.7000E-03  2.7000E-03  2.7000E-03  2.7000E-03
       2.7000E-03  2.7000E-03  2.7000E-03  9.0000E-03  2.7000E-03  2.7000E-03  2.7000E-03  2.7000E-03  2.7000E-03  2.7000E-03
       9.0000E-03  9.0000E-03  2.7000E-03  2.7000E-03  2.7000E-03  2.7000E-03  2.7000E-03  2.7000E-03  2.7000E-03  2.7000E-03
       2.7000E-03  2.7000E-03  2.7000E-03  2.7000E-03  2.7000E-03  2.7000E-03  9.0000E-03  9.0000E-03  2.7000E-02  2.7000E-02
       2.7000E-03  2.7000E-03   0.000       0.000       0.000       0.000       0.000       0.000       0.000    
  32    0.000       0.000       0.000       0.000       0.000       0.000       0.000       0.000       0.000       0.000    
        0.000       0.000       0.000       0.000       0.000       0.000      4.5000E-04  4.5000E-04  4.5000E-04  4.5000E-04
       4.5000E-04  4.5000E-04  9.0000E-04  9.0000E-04  9.0000E-04  9.0000E-04  9.0000E-04  9.0000E-04  9.0000E-04  9.0000E-04
       9.0000E-04  9.0000E-04  9.0000E-04  9.0000E-04  9.0000E-04  9.0000E-04  2.7000E-03  2.7000E-03  2.7000E-02  2.7000E-02
       2.7000E-02  2.7000E-02  2.7000E-02  2.7000E-02  2.7000E-03  2.7000E-03  2.7000E-03  2.7000E-03  2.7000E-03  2.7000E-03
       9.0000E-03  9.0000E-03  9.0000E-03  2.7000E-03  2.7000E-03  2.7000E-03  2.7000E-03  2.7000E-03  2.7000E-03  2.7000E-03
       2.7000E-03  2.7000E-03  2.7000E-03  2.7000E-03  2.7000E-03  2.7000E-03  2.7000E-03  9.0000E-03  9.0000E-03  2.7000E-02
       9.0000E-03  2.7000E-03   0.000       0.000       0.000       0.000       0.000       0.000       0.000    
  33    0.000       0.000       0.000       0.000       0.000       0.000       0.000       0.000       0.000       0.000    
        0.000       0.000       0.000       0.000       0.000      4.5000E-04  4.5000E-04  4.5000E-04  4.5000E-04  4.5000E-04
       4.5000E-04  4.5000E-04  9.0000E-04  9.0000E-04  9.0000E-04  9.0000E-04  9.0000E-04  9.0000E-04  9.0000E-04  9.0000E-04
       9.0000E-04  9.0000E-04  9.0000E-04  9.0000E-04  2.7000E-03  2.7000E-03  2.7000E-03  2.7000E-02  2.7000E-02  2.7000E-02
       2.7000E-02  2.7000E-02  2.7000E-02  2.7000E-02  2.7000E-02  2.7000E-03  2.7000E-03  2.7000E-03  2.7000E-03  2.7000E-03
       9.0000E-03  9.0000E-03  9.0000E-03  9.0000E-03  9.0000E-03  9.0000E-03  2.7000E-03  2.7000E-03  2.7000E-03  2.7000E-03
       2.7000E-03  2.7000E-03  2.7000E-03  2.7000E-03  2.7000E-03  2.7000E-03  2.7000E-03  9.0000E-03  9.0000E-03  2.7000E-02
       9.0000E-03  2.7000E-03  2.7000E-03   0.000       0.000       0.000       0.000       0.000       0.000    
  34    0.000       0.000       0.000       0.000       0.000       0.000       0.000       0.000       0.000       0.000    
        0.000       0.000       0.000       0.000      4.5000E-04  4.5000E-04  4.5000E-04  4.5000E-04  4.5000E-04  4.5000E-04
       4.5000E-04  4.5000E-04  9.0000E-04  9.0000E-04  9.0000E-04  9.0000E-04  9.0000E-04  9.0000E-03  9.0000E-04  9.0000E-04
       9.0000E-04  9.0000E-04  9.0000E-04  9.0000E-04  2.7000E-03  2.7000E-03  2.7000E-02  2.7000E-02  2.7000E-02  2.7000E-02
       2.7000E-02  9.0000E-03  9.0000E-03  2.7000E-02  2.7000E-02  2.7000E-02  2.7000E-02  2.7000E-02  2.7000E-02  9.0000E-03
       9.0000E-03  9.0000E-03  2.7000E-02  2.7000E-02  2.7000E-02  9.0000E-03  2.7000E-03  2.7000E-03  2.7000E-03  2.7000E-03
       2.7000E-03  2.7000E-03  2.7000E-03  2.7000E-03  2.7000E-03  2.7000E-03  2.7000E-03  9.0000E-03  9.0000E-03  9.0000E-03
       2.7000E-03  9.0000E-04  9.0000E-04   0.000       0.000       0.000       0.000       0.000       0.000    
  35    0.000       0.000       0.000       0.000       0.000       0.000       0.000       0.000       0.000       0.000    
        0.000       0.000       0.000      4.5000E-04  4.5000E-04  4.5000E-04  4.5000E-04  4.5000E-04  9.0000E-04  9.0000E-04
       9.0000E-04  9.0000E-04  9.0000E-04  9.0000E-04  9.0000E-03  9.0000E-03  9.0000E-03  9.0000E-03  9.0000E-03  9.0000E-03
       9.0000E-04  9.0000E-04  9.0000E-03  9.0000E-03  2.7000E-02  2.7000E-02  2.7000E-02  2.7000E-02  9.0000E-03  9.0000E-03
       9.0000E-03  9.0000E-03  9.0000E-03  9.0000E-03  2.7000E-02  2.7000E-02  2.7000E-02  2.7000E-02  2.7000E-02  2.7000E-02
       2.7000E-02  2.7000E-02  2.7000E-02  2.7000E-02  2.7000E-02  2.7000E-02  2.7000E-03  2.7000E-03  2.7000E-03  2.7000E-03
       2.7000E-03  2.7000E-03  2.7000E-03  2.7000E-03  2.7000E-03  2.7000E-03  2.7000E-03  9.0000E-03  9.0000E-03  2.7000E-03
       2.7000E-03  9.0000E-04  4.5000E-04  4.5000E-04   0.000       0.000       0.000       0.000       0.000    
  36    0.000       0.000       0.000       0.000       0.000       0.000       0.000       0.000       0.000       0.000    
        0.000       0.000       0.000      4.5000E-04  4.5000E-04  4.5000E-04  4.5000E-04  9.0000E-04  9.0000E-04  9.0000E-04
       9.0000E-04  9.0000E-04  9.0000E-04  9.0000E-04  9.0000E-03  9.0000E-03  9.0000E-03  9.0000E-03  2.7000E-02  2.7000E-02
       2.7000E-02  2.7000E-02  2.7000E-02  2.7000E-02  2.7000E-02  2.7000E-02  2.7000E-02  2.7000E-02  9.0000E-03  9.0000E-03
       9.0000E-03  9.0000E-03  9.0000E-03  9.0000E-03  2.7000E-02  2.7000E-02  2.7000E-02  2.7000E-02  2.7000E-02  2.7000E-02
       2.7000E-02  2.7000E-02  2.7000E-02  2.7000E-02  2.7000E-02  2.7000E-02  2.7000E-02  9.0000E-03  9.0000E-03  2.7000E-03
       2.7000E-03  2.7000E-03  9.0000E-03  9.0000E-03  2.7000E-03  2.7000E-03  2.7000E-03  9.0000E-03  9.0000E-03  2.7000E-03
       2.7000E-03  2.7000E-03  4.5000E-04  4.5000E-04  4.5000E-04   0.000       0.000       0.000       0.000    
  37    0.000       0.000       0.000       0.000       0.000       0.000       0.000       0.000       0.000       0.000    
        0.000       0.000      4.5000E-04  4.5000E-04  4.5000E-04  4.5000E-04  9.0000E-04  9.0000E-04  9.0000E-04  9.0000E-04
       9.0000E-04  9.0000E-04  9.0000E-04  9.0000E-03  2.7000E-02  2.7000E-02  2.7000E-02  2.7000E-02  2.7000E-02  2.7000E-02
       2.7000E-02  2.7000E-02  2.7000E-02  2.7000E-02  2.7000E-02  2.7000E-02  2.7000E-02  2.7000E-02  2.7000E-03  2.7000E-03
       2.7000E-03  2.7000E-03  9.0000E-03  2.7000E-02  2.7000E-02  2.7000E-02  2.7000E-02  2.7000E-02  2.7000E-02  2.7000E-02
       2.7000E-02  2.7000E-02  2.7000E-02  2.7000E-02  2.7000E-02  2.7000E-02  2.7000E-02  2.7000E-02  2.7000E-02  2.7000E-02
       2.7000E-02  2.7000E-02  9.0000E-03  9.0000E-03  9.0000E-03  9.0000E-03  9.0000E-03  9.0000E-03  9.0000E-03  9.0000E-03
       2.7000E-03  2.7000E-03  9.0000E-04  4.5000E-04  4.5000E-04   0.000       0.000       0.000       0.000    
  38    0.000       0.000       0.000       0.000       0.000       0.000       0.000       0.000       0.000       0.000    
       9.0000E-04  9.0000E-04  4.5000E-04  9.0000E-04  9.0000E-04  9.0000E-04  9.0000E-04  9.0000E-04  9.0000E-03  9.0000E-03
       9.0000E-03  9.0000E-03  9.0000E-03  9.0000E-03  9.0000E-03  2.7000E-02  2.7000E-02  2.7000E-02  9.0000E-03  9.0000E-03
       2.7000E-02  2.7000E-02  2.7000E-02  2.7000E-02  2.7000E-02  2.7000E-02  2.7000E-02  2.7000E-02  2.7000E-03  2.7000E-03
       2.7000E-03  2.7000E-03  9.0000E-03  2.7000E-02  2.7000E-02  2.7000E-02  2.7000E-03  9.0000E-03  9.0000E-03  9.0000E-03
       9.0000E-03  9.0000E-03  2.7000E-02  2.7000E-02  2.7000E-02  2.7000E-02  2.7000E-02  2.7000E-02  2.7000E-02  2.7000E-02
       2.7000E-02  2.7000E-02  2.7000E-02  2.7000E-02  2.7000E-02  2.7000E-02  2.7000E-02  2.7000E-02  2.7000E-02  9.0000E-03
       9.0000E-03  2.7000E-03  9.0000E-04  4.5000E-04  4.5000E-04  9.0000E-04   0.000       0.000       0.000    
  39    0.000       0.000       0.000       0.000       0.000       0.000       0.000      4.5000E-04  4.5000E-04  9.0000E-04
       9.0000E-04  9.0000E-04  9.0000E-04  9.0000E-04  9.0000E-03  9.0000E-03  9.0000E-03  9.0000E-03  9.0000E-03  9.0000E-03
       9.0000E-03  9.0000E-03  9.0000E-03  2.7000E-03  2.7000E-03  2.7000E-03  2.7000E-03  2.7000E-03  9.0000E-03  2.7000E-02
       2.7000E-02  2.7000E-02  2.7000E-02  2.7000E-02  2.7000E-02  2.7000E-02  2.7000E-02  2.7000E-02  2.7000E-03  2.7000E-03
       2.7000E-03  2.7000E-03  2.7000E-03  2.7000E-02  2.7000E-02  2.7000E-03  2.7000E-03  2.7000E-03  9.0000E-03  9.0000E-03
       9.0000E-03  9.0000E-03  9.0000E-03  9.0000E-03  9.0000E-03  9.0000E-03  9.0000E-03  9.0000E-03  9.0000E-03  2.7000E-02
       2.7000E-02  2.7000E-02  2.7000E-02  2.7000E-02  2.7000E-02  2.7000E-02  2.7000E-02  2.7000E-02  2.7000E-02  2.7000E-02
       2.7000E-02  2.7000E-02  9.0000E-03  9.0000E-04  9.0000E-04  8.1000E-02   0.000       0.000       0.000    
  40    0.000       0.000       0.000       0.000       0.000       0.000      4.5000E-04  4.5000E-04  4.5000E-04  9.0000E-04
       9.0000E-04  9.0000E-04  9.0000E-03  9.0000E-03  9.0000E-03  9.0000E-03  9.0000E-03  9.0000E-03  9.0000E-04  9.0000E-04
       9.0000E-04  9.0000E-04  2.7000E-03  2.7000E-03  2.7000E-03  2.7000E-03  2.7000E-03  2.7000E-03  2.7000E-02  2.7000E-02
       2.7000E-02  2.7000E-02  2.7000E-02  2.7000E-02  2.7000E-02  2.7000E-02  2.7000E-02  2.7000E-02  2.7000E-03  2.7000E-03
       2.7000E-03  2.7000E-03  2.7000E-03  2.7000E-02  2.7000E-02  2.7000E-03  2.7000E-03  2.7000E-03  2.7000E-03  9.0000E-03
       9.0000E-03  9.0000E-03  9.0000E-03  9.0000E-03  9.0000E-03  9.0000E-03  2.7000E-03  2.7000E-03  9.0000E-03  2.7000E-02
       2.7000E-02  9.0000E-03  9.0000E-03  9.0000E-03  9.0000E-03  2.7000E-02  2.7000E-02  2.7000E-02  2.7000E-02  2.7000E-02
       2.7000E-02  2.7000E-02  2.7000E-02  2.7000E-02  2.7000E-02  8.1000E-02   0.000       0.000       0.000    
  41    0.000       0.000       0.000       0.000       0.000      4.5000E-04  4.5000E-04  4.5000E-04  9.0000E-04  9.0000E-04
       9.0000E-04  9.0000E-04  9.0000E-03  9.0000E-03  9.0000E-04  9.0000E-04  9.0000E-04  9.0000E-04  9.0000E-04  9.0000E-04
       9.0000E-04  2.7000E-03  2.7000E-03  2.7000E-03  2.7000E-03  2.7000E-03  2.7000E-03  2.7000E-03  2.7000E-02  2.7000E-02
       9.0000E-03  9.0000E-03  9.0000E-03  2.7000E-02  2.7000E-02  2.7000E-02  2.7000E-02  2.7000E-02  2.7000E-03  2.7000E-03
       2.7000E-03  2.7000E-03  2.7000E-03  2.7000E-02  2.7000E-02  2.7000E-02  2.7000E-03  2.7000E-03  2.7000E-03  9.0000E-03
       9.0000E-03  9.0000E-03  9.0000E-04  9.0000E-04  9.0000E-04  9.0000E-04  2.7000E-03  2.7000E-03  2.7000E-03  2.7000E-02
       2.7000E-02  9.0000E-03  2.7000E-03  9.0000E-03  9.0000E-03  9.0000E-03  2.7000E-03  2.7000E-03  2.7000E-02  2.7000E-02
       2.7000E-02  2.7000E-02  2.7000E-02  2.7000E-02  2.7000E-02   0.000       0.000       0.000       0.000    
  42    0.000       0.000       0.000       0.000       0.000      4.5000E-04  4.5000E-04  4.5000E-04  9.0000E-04  9.0000E-04
       9.0000E-04  9.0000E-04  9.0000E-04  9.0000E-04  9.0000E-04  9.0000E-04  9.0000E-04  9.0000E-04  9.0000E-04  2.7000E-03
       2.7000E-03  2.7000E-03  2.7000E-03  2.7000E-02  2.7000E-02  2.7000E-02  2.7000E-02  2.7000E-02  2.7000E-02  9.0000E-03
       9.0000E-03  9.0000E-03  9.0000E-03  9.0000E-03  2.7000E-02  2.7000E-02  2.7000E-02  2.7000E-02  2.7000E-03  2.7000E-03
       2.7000E-03  2.7000E-03  2.7000E-03  9.0000E-03  2.7000E-02  2.7000E-02  2.7000E-03  2.7000E-03  2.7000E-03  2.7000E-03
       9.0000E-04  9.0000E-04  9.0000E-04  9.0000E-04  9.0000E-04  9.0000E-04  9.0000E-04  2.7000E-03  2.7000E-03  2.7000E-02
       2.7000E-02  9.0000E-03  2.7000E-03  2.7000E-03  2.7000E-03  2.7000E-03  2.7000E-03  2.7000E-03  2.7000E-03  9.0000E-03
       2.7000E-02  2.7000E-02  2.7000E-02  2.7000E-02  2.7000E-02   0.000       0.000       0.000       0.000    
  43    0.000       0.000       0.000       0.000       0.000      4.5000E-04  4.5000E-04  4.5000E-04  9.0000E-04  9.0000E-04
       9.0000E-04  9.0000E-04  9.0000E-04  9.0000E-04  9.0000E-04  9.0000E-04  9.0000E-04  9.0000E-04  9.0000E-04  2.7000E-03
       2.7000E-03  2.7000E-03  2.7000E-02  2.7000E-02  2.7000E-02  9.0000E-03  9.0000E-03  9.0000E-03  9.0000E-03  9.0000E-03
       9.0000E-03  9.0000E-03  9.0000E-03  9.0000E-03  2.7000E-02  2.7000E-02  2.7000E-02  2.7000E-03  2.7000E-03  2.7000E-03
       2.7000E-03  2.7000E-03  2.7000E-03  9.0000E-03  2.7000E-02  2.7000E-02  2.7000E-03  2.7000E-03  2.7000E-03  2.7000E-03
       9.0000E-04  9.0000E-04  9.0000E-04  9.0000E-04  9.0000E-04  9.0000E-04  9.0000E-04  2.7000E-03  2.7000E-03  2.7000E-02
       2.7000E-02  2.7000E-03  2.7000E-03  2.7000E-03  2.7000E-03  2.7000E-03  2.7000E-03  2.7000E-03  2.7000E-03  9.0000E-03
       2.7000E-02  2.7000E-02  2.7000E-02  2.7000E-02  9.0000E-03   0.000       0.000       0.000       0.000    
  44    0.000       0.000       0.000       0.000       0.000      4.5000E-04  4.5000E-04  4.5000E-04  4.5000E-04  9.0000E-04
       9.0000E-04  9.0000E-04  9.0000E-04  9.0000E-04  9.0000E-04  2.7000E-03  2.7000E-03  2.7000E-03  2.7000E-03  9.0000E-03
       9.0000E-03  2.7000E-02  2.7000E-02  9.0000E-03  9.0000E-03  9.0000E-03  9.0000E-03  9.0000E-03  9.0000E-03  9.0000E-03
       9.0000E-03  9.0000E-03  9.0000E-03  9.0000E-03  2.7000E-02  2.7000E-02  2.7000E-02  2.7000E-03  2.7000E-03  2.7000E-03
       2.7000E-03  2.7000E-03  9.0000E-04  9.0000E-04  2.7000E-02  2.7000E-02  2.7000E-03  2.7000E-03  2.7000E-03  2.7000E-03
       2.7000E-03  9.0000E-04  4.5000E-04  4.5000E-04  4.5000E-04  9.0000E-04  9.0000E-04  2.7000E-03  2.7000E-03  9.0000E-03
       2.7000E-02  2.7000E-03  2.7000E-03  2.7000E-03  2.7000E-03  2.7000E-03  2.7000E-03  2.7000E-03  2.7000E-03  9.0000E-03
       9.0000E-03  2.7000E-02  2.7000E-02  9.0000E-03  9.0000E-03   0.000       0.000       0.000       0.000    
  45    0.000       0.000       0.000      4.5000E-04  4.5000E-04  4.5000E-04  4.5000E-04  4.5000E-04  9.0000E-04  9.0000E-04
       9.0000E-04  9.0000E-04  9.0000E-04  9.0000E-04  9.0000E-03  9.0000E-03  9.0000E-03  9.0000E-03  9.0000E-03  2.7000E-02
       2.7000E-02  2.7000E-02  9.0000E-03  9.0000E-03  9.0000E-03  9.0000E-03  9.0000E-03  9.0000E-03  9.0000E-03  9.0000E-03
       9.0000E-03  9.0000E-03  9.0000E-03  9.0000E-03  2.7000E-02  2.7000E-02  2.7000E-02  9.0000E-03  9.0000E-04  9.0000E-04
       9.0000E-04  9.0000E-04  9.0000E-04  9.0000E-04  2.7000E-02  2.7000E-02  2.7000E-03  2.7000E-03  4.5000E-04  4.5000E-04
       4.5000E-04  4.5000E-04  4.5000E-04  4.5000E-04  4.5000E-04  9.0000E-04  9.0000E-04  2.7000E-03  2.7000E-03  9.0000E-03
       2.7000E-02  2.7000E-03  2.7000E-03  2.7000E-03  2.7000E-03  2.7000E-03  2.7000E-03  2.7000E-03  2.7000E-03  9.0000E-03
       9.0000E-03  2.7000E-02  2.7000E-02  2.7000E-03  9.0000E-04   0.000       0.000       0.000       0.000    
  46    0.000       0.000       0.000      4.5000E-04  4.5000E-04  4.5000E-04  4.5000E-04  4.5000E-04  9.0000E-04  9.0000E-04
       9.0000E-04  9.0000E-03  9.0000E-03  9.0000E-03  9.0000E-03  9.0000E-03  2.7000E-02  2.7000E-02  2.7000E-02  2.7000E-02
       2.7000E-02  9.0000E-03  9.0000E-03  9.0000E-03  9.0000E-03  9.0000E-03  9.0000E-03  9.0000E-03  9.0000E-03  9.0000E-03
       9.0000E-03  9.0000E-03  9.0000E-03  9.0000E-03  2.7000E-02  2.7000E-02  2.7000E-02  2.7000E-03  9.0000E-04  9.0000E-04
       9.0000E-04  9.0000E-04  9.0000E-04  9.0000E-04  2.7000E-02  2.7000E-02  2.7000E-03  2.7000E-03  4.5000E-04  4.5000E-04
       4.5000E-04  4.5000E-04  4.5000E-04  4.5000E-04  4.5000E-04  9.0000E-04  9.0000E-04  2.7000E-03  2.7000E-03  9.0000E-03
       9.0000E-03  2.7000E-03  2.7000E-03  2.7000E-03  2.7000E-03  2.7000E-03  2.7000E-03  2.7000E-03  2.7000E-03  9.0000E-03
       9.0000E-03  2.7000E-02  9.0000E-03  2.7000E-03  2.7000E-03   0.000       0.000       0.000       0.000    
  47    0.000       0.000       0.000      4.5000E-04  4.5000E-04  4.5000E-04  4.5000E-04  9.0000E-04  9.0000E-04  9.0000E-04
       9.0000E-04  9.0000E-03  9.0000E-03  9.0000E-03  2.7000E-02  2.7000E-02  2.7000E-02  9.0000E-03  9.0000E-03  9.0000E-03
       9.0000E-03  9.0000E-03  9.0000E-03  9.0000E-03  9.0000E-03  9.0000E-03  9.0000E-03  9.0000E-03  9.0000E-03  2.7000E-03
       9.0000E-03  9.0000E-03  9.0000E-03  9.0000E-03  2.7000E-02  2.7000E-02  2.7000E-02  2.7000E-03  9.0000E-04  9.0000E-04
       9.0000E-04  9.0000E-04  9.0000E-04  9.0000E-04  2.7000E-02  2.7000E-02  2.7000E-03  2.7000E-03  4.5000E-04  4.5000E-04
       4.5000E-04  4.5000E-04  4.5000E-04  4.5000E-04  4.5000E-04  9.0000E-04  9.0000E-04  9.0000E-04  2.7000E-03  2.7000E-03
       9.0000E-03  2.7000E-03  2.7000E-03  2.7000E-03  2.7000E-03  2.7000E-03  2.7000E-03  2.7000E-03  2.7000E-03  9.0000E-03
       9.0000E-03  2.7000E-02  9.0000E-03  2.7000E-03  2.7000E-03   0.000       0.000       0.000       0.000    
  48    0.000       0.000       0.000      4.5000E-04  4.5000E-04  4.5000E-04  4.5000E-04  9.0000E-04  9.0000E-04  9.0000E-04
       9.0000E-04  9.0000E-03  2.7000E-02  2.7000E-02  2.7000E-02  9.0000E-03  9.0000E-03  9.0000E-03  9.0000E-03  9.0000E-03
       9.0000E-03  9.0000E-03  9.0000E-03  9.0000E-03  2.7000E-03  2.7000E-03  2.7000E-03  2.7000E-03  2.7000E-03  2.7000E-03
       9.0000E-03  9.0000E-03  9.0000E-03  9.0000E-03  2.7000E-02  2.7000E-02  2.7000E-02  2.7000E-02  9.0000E-04  9.0000E-04
       9.0000E-04  9.0000E-04  9.0000E-04  9.0000E-04  2.7000E-02  2.7000E-02  2.7000E-03  2.7000E-03  2.7000E-03  4.5000E-04
       4.5000E-04  4.5000E-04  4.5000E-04  4.5000E-04  4.5000E-04  4.5000E-04  9.0000E-04  9.0000E-04  2.7000E-03  2.7000E-03
       9.0000E-03  9.0000E-03  2.7000E-03  2.7000E-03  2.7000E-03  2.7000E-03  2.7000E-03  2.7000E-03  2.7000E-03  9.0000E-03
       2.7000E-02  2.7000E-02  9.0000E-03  2.7000E-03  2.7000E-03  2.7000E-03   0.000       0.000       0.000    
  49    0.000       0.000       0.000      4.5000E-04  4.5000E-04  4.5000E-04  4.5000E-04  9.0000E-04  9.0000E-04  9.0000E-04
       9.0000E-03  2.7000E-02  2.7000E-02  9.0000E-03  9.0000E-03  9.0000E-03  9.0000E-03  9.0000E-03  9.0000E-03  2.7000E-03
       2.7000E-03  2.7000E-03  2.7000E-03  2.7000E-03  2.7000E-03  2.7000E-03  2.7000E-03  2.7000E-03  2.7000E-03  2.7000E-03
       9.0000E-03  9.0000E-03  9.0000E-03  9.0000E-03  2.7000E-02  2.7000E-02  2.7000E-02  2.7000E-02  2.7000E-02  9.0000E-04
       9.0000E-04  9.0000E-04  9.0000E-04  9.0000E-04  9.0000E-04  2.7000E-02  2.7000E-02  9.0000E-03  2.7000E-03  4.5000E-04
       4.5000E-04  4.5000E-04  4.5000E-04  4.5000E-04  4.5000E-04  4.5000E-04  9.0000E-04  9.0000E-04  2.7000E-03  2.7000E-03
       9.0000E-03  9.0000E-03  2.7000E-03  2.7000E-03  2.7000E-03  2.7000E-03  2.7000E-03  2.7000E-03  2.7000E-03  9.0000E-03
       2.7000E-02  2.7000E-02  9.0000E-03  2.7000E-03  2.7000E-03  2.7000E-03   0.000       0.000       0.000    
  50    0.000       0.000       0.000      4.5000E-04  4.5000E-04  4.5000E-04  9.0000E-04  9.0000E-04  9.0000E-04  9.0000E-04
       2.7000E-02  2.7000E-02  2.7000E-02  2.7000E-02  9.0000E-03  2.7000E-03  2.7000E-03  2.7000E-03  2.7000E-03  2.7000E-03
       2.7000E-03  2.7000E-03  2.7000E-03  2.7000E-03  2.7000E-03  2.7000E-03  2.7000E-03  2.7000E-03  2.7000E-03  2.7000E-03
       2.7000E-03  9.0000E-03  9.0000E-03  9.0000E-03  9.0000E-03  2.7000E-02  2.7000E-02  2.7000E-02  2.7000E-02  2.7000E-02
       9.0000E-04  9.0000E-04  9.0000E-04  9.0000E-04  9.0000E-04  9.0000E-04  2.7000E-02  2.7000E-02  9.0000E-03  4.5000E-04
       4.5000E-04  4.5000E-04  4.5000E-04  4.5000E-04  4.5000E-04  4.5000E-04  9.0000E-04  9.0000E-04  2.7000E-03  2.7000E-03
       9.0000E-03  9.0000E-03  2.7000E-03  2.7000E-03  2.7000E-03  2.7000E-03  2.7000E-03  2.7000E-03  2.7000E-03  9.0000E-03
       2.7000E-02  2.7000E-02  9.0000E-03  9.0000E-03  2.7000E-03  2.7000E-03   0.000       0.000       0.000    
  51    0.000       0.000       0.000      4.5000E-04  4.5000E-04  9.0000E-04  9.0000E-04  9.0000E-04  9.0000E-04  2.7000E-02
       2.7000E-02  2.7000E-02  2.7000E-02  9.0000E-03  9.0000E-03  9.0000E-04  9.0000E-04  2.7000E-03  2.7000E-03  2.7000E-03
       2.7000E-03  2.7000E-03  2.7000E-03  2.7000E-03  2.7000E-03  2.7000E-03  2.7000E-03  2.7000E-03  2.7000E-03  2.7000E-03
       2.7000E-03  9.0000E-03  9.0000E-03  9.0000E-03  9.0000E-03  2.7000E-02  2.7000E-02  2.7000E-02  2.7000E-02  2.7000E-02
       9.0000E-04  9.0000E-04  9.0000E-04  9.0000E-04  9.0000E-04  9.0000E-04  2.7000E-02  2.7000E-02  2.7000E-02  4.5000E-04
       4.5000E-04  4.5000E-04  4.5000E-04  4.5000E-04  4.5000E-04  4.5000E-04  9.0000E-04  9.0000E-04  2.7000E-03  2.7000E-03
       9.0000E-03  9.0000E-03  9.0000E-03  2.7000E-03  2.7000E-03  2.7000E-03  2.7000E-03  2.7000E-03  2.7000E-03  9.0000E-03
       2.7000E-02  2.7000E-02  9.0000E-03  9.0000E-03  2.7000E-03  2.7000E-03   0.000       0.000       0.000    
  52    0.000       0.000      4.5000E-04  4.5000E-04  4.5000E-04  9.0000E-04  9.0000E-04  9.0000E-04  9.0000E-04  2.7000E-02
       2.7000E-02  2.7000E-02  9.0000E-03  9.0000E-04  9.0000E-04  9.0000E-04  9.0000E-04  9.0000E-04  9.0000E-04  2.7000E-03
       2.7000E-03  2.7000E-03  2.7000E-03  2.7000E-03  2.7000E-03  2.7000E-03  2.7000E-03  2.7000E-03  2.7000E-03  2.7000E-03
       2.7000E-03  9.0000E-03  9.0000E-03  9.0000E-03  9.0000E-03  2.7000E-02  2.7000E-02  2.7000E-02  2.7000E-02  2.7000E-02
       9.0000E-04  9.0000E-04  9.0000E-04  9.0000E-04  9.0000E-04  9.0000E-04  9.0000E-04  2.7000E-02  2.7000E-02  4.5000E-04
       4.5000E-04  4.5000E-04  4.5000E-04  4.5000E-04  4.5000E-04  4.5000E-04  9.0000E-04  9.0000E-04  9.0000E-04  2.7000E-03
       9.0000E-03  9.0000E-03  9.0000E-03  2.7000E-03  2.7000E-03  2.7000E-03  2.7000E-03  2.7000E-03  2.7000E-03  9.0000E-03
       2.7000E-02  2.7000E-02  2.7000E-02  9.0000E-03  2.7000E-03  2.7000E-03   0.000       0.000       0.000    
  53    0.000       0.000      4.5000E-04  4.5000E-04  4.5000E-04  9.0000E-04  9.0000E-04  9.0000E-04  2.7000E-02  2.7000E-02
       2.7000E-02  9.0000E-03  9.0000E-04  9.0000E-04  9.0000E-04  9.0000E-04  9.0000E-04  9.0000E-04  9.0000E-04  9.0000E-04
       9.0000E-04  2.7000E-03  2.7000E-03  2.7000E-03  2.7000E-03  2.7000E-03  2.7000E-03  2.7000E-03  2.7000E-03  2.7000E-03
       2.7000E-03  9.0000E-03  9.0000E-03  9.0000E-03  9.0000E-03  2.7000E-02  2.7000E-02  2.7000E-02  2.7000E-02  9.0000E-04
       9.0000E-04  9.0000E-04  9.0000E-04  9.0000E-04  9.0000E-04  9.0000E-04  9.0000E-04  2.7000E-02  9.0000E-03  2.7000E-02
       4.5000E-04  4.5000E-04  4.5000E-04  4.5000E-04  4.5000E-04  4.5000E-04  4.5000E-04  9.0000E-04  9.0000E-04  2.7000E-03
       9.0000E-03  9.0000E-03  9.0000E-03  2.7000E-03  2.7000E-03  2.7000E-03  2.7000E-03  2.7000E-03  2.7000E-03  9.0000E-03
       9.0000E-03  2.7000E-02  2.7000E-02  9.0000E-03  2.7000E-03  2.7000E-03  2.7000E-03   0.000       0.000    
  54    0.000       0.000      4.5000E-04  4.5000E-04  4.5000E-04  9.0000E-04  9.0000E-04  9.0000E-04  2.7000E-02  2.7000E-02
       2.7000E-02  9.0000E-04  9.0000E-04  9.0000E-04  9.0000E-04  9.0000E-04  9.0000E-04  9.0000E-04  9.0000E-04  9.0000E-04
       9.0000E-04  2.7000E-03  2.7000E-03  2.7000E-03  2.7000E-03  2.7000E-03  2.7000E-03  2.7000E-03  2.7000E-03  2.7000E-03
       2.7000E-03  9.0000E-03  9.0000E-03  9.0000E-03  9.0000E-03  2.7000E-02  2.7000E-02  2.7000E-02  2.7000E-02  2.7000E-03
       9.0000E-04  9.0000E-04  9.0000E-04  4.5000E-04  4.5000E-04  4.5000E-04  9.0000E-04  9.0000E-03  9.0000E-03  9.0000E-03
       4.5000E-04  4.5000E-04  4.5000E-04  4.5000E-04  4.5000E-04  4.5000E-04  4.5000E-04  9.0000E-04  9.0000E-04  2.7000E-03
       9.0000E-03  9.0000E-03  9.0000E-03  2.7000E-03  2.7000E-03  2.7000E-03  2.7000E-03  2.7000E-03  2.7000E-03  9.0000E-03
       9.0000E-03  9.0000E-03  9.0000E-03  9.0000E-03  2.7000E-03  2.7000E-03  2.7000E-03   0.000       0.000    
  55    0.000      4.5000E-04  4.5000E-04  4.5000E-04  9.0000E-04  9.0000E-04  9.0000E-04  9.0000E-03  9.0000E-03  9.0000E-03
       9.0000E-03  9.0000E-04  9.0000E-04  9.0000E-04  9.0000E-04  9.0000E-04  9.0000E-04  9.0000E-04  9.0000E-04  9.0000E-04
       9.0000E-04  9.0000E-04  2.7000E-03  2.7000E-03  2.7000E-03  2.7000E-03  2.7000E-03  2.7000E-03  2.7000E-03  2.7000E-03
       2.7000E-03  2.7000E-03  9.0000E-03  9.0000E-03  9.0000E-03  2.7000E-02  2.7000E-02  2.7000E-02  2.7000E-02  2.7000E-03
       9.0000E-04  4.5000E-04  4.5000E-04  4.5000E-04  4.5000E-04  4.5000E-04  9.0000E-04  9.0000E-03  9.0000E-03  9.0000E-03
       4.5000E-04  4.5000E-04  4.5000E-04  4.5000E-04  4.5000E-04  4.5000E-04  4.5000E-04  9.0000E-04  9.0000E-04  2.7000E-03
       9.0000E-03  9.0000E-03  9.0000E-03  2.7000E-03  2.7000E-03  2.7000E-03  2.7000E-03  2.7000E-03  2.7000E-03  9.0000E-03
       9.0000E-03  9.0000E-03  9.0000E-03  9.0000E-03  9.0000E-03  2.7000E-03  2.7000E-03   0.000       0.000    
  56    0.000      4.5000E-04  4.5000E-04  9.0000E-04  9.0000E-04  9.0000E-04  9.0000E-03  9.0000E-03  9.0000E-03  9.0000E-03
       9.0000E-03  9.0000E-04  9.0000E-04  9.0000E-04  9.0000E-04  9.0000E-04  9.0000E-04  9.0000E-04  9.0000E-04  9.0000E-04
       9.0000E-04  9.0000E-04  9.0000E-04  2.7000E-03  2.7000E-03  2.7000E-03  2.7000E-03  2.7000E-03  2.7000E-03  2.7000E-03
       2.7000E-03  2.7000E-03  9.0000E-03  9.0000E-03  9.0000E-03  2.7000E-02  2.7000E-02  2.7000E-02  2.7000E-02  2.7000E-03
       9.0000E-04  4.5000E-04  4.5000E-04  4.5000E-04  4.5000E-04  4.5000E-04  9.0000E-04  9.0000E-03  9.0000E-03  9.0000E-03
       4.5000E-04  4.5000E-04  4.5000E-04  4.5000E-04  4.5000E-04  4.5000E-04  4.5000E-04  9.0000E-04  9.0000E-04  2.7000E-03
       9.0000E-03  9.0000E-03  9.0000E-03  2.7000E-03  2.7000E-03  9.0000E-04  9.0000E-04  9.0000E-04  2.7000E-03  2.7000E-03
       9.0000E-03  9.0000E-03  9.0000E-03  9.0000E-03  9.0000E-03  2.7000E-03  2.7000E-03   0.000       0.000    
  57   4.5000E-04  4.5000E-04  9.0000E-04  9.0000E-04  9.0000E-04  9.0000E-03  9.0000E-03  9.0000E-03  9.0000E-03  9.0000E-04
       9.0000E-04  9.0000E-04  9.0000E-04  9.0000E-04  9.0000E-04  9.0000E-04  9.0000E-04  9.0000E-04  9.0000E-04  9.0000E-04
       9.0000E-04  9.0000E-04  9.0000E-04  9.0000E-04  9.0000E-04  9.0000E-04  2.7000E-03  2.7000E-03  2.7000E-03  2.7000E-03
       2.7000E-03  2.7000E-03  9.0000E-03  9.0000E-03  9.0000E-03  2.7000E-02  2.7000E-02  2.7000E-02  2.7000E-03  2.7000E-03
       9.0000E-04  4.5000E-04  4.5000E-04  4.5000E-04  4.5000E-04  4.5000E-04  9.0000E-04  9.0000E-03  9.0000E-03  9.0000E-03
       4.5000E-04  4.5000E-04  4.5000E-04  4.5000E-04  4.5000E-04  4.5000E-04  4.5000E-04  9.0000E-04  9.0000E-04  9.0000E-04
       2.7000E-03  9.0000E-03  9.0000E-03  2.7000E-03  2.7000E-03  9.0000E-04  9.0000E-04  9.0000E-04  2.7000E-03  2.7000E-03
       9.0000E-03  9.0000E-03  2.7000E-03  2.7000E-03  2.7000E-03  2.7000E-03  2.7000E-03   0.000       0.000    
  58   4.5000E-04  4.5000E-04  9.0000E-04  9.0000E-04  9.0000E-04  9.0000E-03  9.0000E-04  9.0000E-04  9.0000E-04  9.0000E-04
       9.0000E-04  9.0000E-04  9.0000E-04  9.0000E-04  9.0000E-04  9.0000E-04  4.5000E-04  9.0000E-04  9.0000E-04  9.0000E-04
       9.0000E-04  9.0000E-04  9.0000E-04  9.0000E-04  9.0000E-04  9.0000E-04  9.0000E-04  2.7000E-03  2.7000E-03  2.7000E-03
       2.7000E-03  2.7000E-03  9.0000E-03  9.0000E-03  9.0000E-03  2.7000E-02  2.7000E-02  2.7000E-02  2.7000E-03  2.7000E-03
       9.0000E-04  4.5000E-04  4.5000E-04  4.5000E-04  4.5000E-04  4.5000E-04  4.5000E-04  9.0000E-04  9.0000E-03  9.0000E-03
       9.0000E-03  2.7000E-03  9.0000E-04  4.5000E-04  4.5000E-04  4.5000E-04  4.5000E-04  9.0000E-04  9.0000E-04  9.0000E-04
       2.7000E-03  9.0000E-03  2.7000E-03  2.7000E-03  2.7000E-03  9.0000E-04  9.0000E-04  9.0000E-04  2.7000E-03  9.0000E-03
       9.0000E-03  9.0000E-03  2.7000E-03  2.7000E-03  2.7000E-03  2.7000E-03  2.7000E-03   0.000       0.000    
  59   4.5000E-04  4.5000E-04  9.0000E-04  9.0000E-04  9.0000E-04  9.0000E-04  9.0000E-04  9.0000E-04  9.0000E-04  9.0000E-04
       9.0000E-04  4.5000E-04  4.5000E-04  4.5000E-04  4.5000E-04  4.5000E-04  4.5000E-04  9.0000E-04  9.0000E-04  9.0000E-04
       9.0000E-04  9.0000E-04  9.0000E-04  9.0000E-04  9.0000E-04  9.0000E-04  9.0000E-04  9.0000E-04  2.7000E-03  2.7000E-03
       2.7000E-03  2.7000E-03  9.0000E-03  9.0000E-03  9.0000E-03  9.0000E-03  2.7000E-02  2.7000E-02  2.7000E-02  2.7000E-03
       9.0000E-04  9.0000E-04  4.5000E-04  4.5000E-04  4.5000E-04  4.5000E-04  4.5000E-04  9.0000E-04  9.0000E-03  9.0000E-04
       9.0000E-03  2.7000E-03  9.0000E-04  4.5000E-04  4.5000E-04  4.5000E-04  4.5000E-04  9.0000E-04  9.0000E-04  9.0000E-04
       2.7000E-03  2.7000E-03  2.7000E-03  9.0000E-04  9.0000E-04  9.0000E-04  9.0000E-04  9.0000E-04  2.7000E-03  9.0000E-03
       9.0000E-03  9.0000E-03  2.7000E-03  2.7000E-03  2.7000E-03  2.7000E-03  2.7000E-03  2.7000E-03   0.000    
  60    0.000      4.5000E-04  4.5000E-04  9.0000E-04  9.0000E-04  9.0000E-04  4.5000E-04  4.5000E-04  4.5000E-04  4.5000E-04
       4.5000E-04  4.5000E-04  4.5000E-04   0.000       0.000       0.000      4.5000E-04  4.5000E-04  9.0000E-04  9.0000E-04
       9.0000E-04  9.0000E-04  9.0000E-04  9.0000E-04  9.0000E-04  9.0000E-04  9.0000E-04  9.0000E-04  9.0000E-04  2.7000E-03
       2.7000E-03  2.7000E-03  2.7000E-03  9.0000E-03  9.0000E-03  9.0000E-03  2.7000E-02  2.7000E-02  2.7000E-02  2.7000E-03
       9.0000E-04  9.0000E-04  4.5000E-04  4.5000E-04  4.5000E-04  4.5000E-04  4.5000E-04  9.0000E-04  9.0000E-04  9.0000E-04
       9.0000E-03  2.7000E-03  9.0000E-04  4.5000E-04  9.0000E-04  9.0000E-04  9.0000E-04  9.0000E-04  9.0000E-04  2.7000E-03
       2.7000E-03  2.7000E-03  9.0000E-04  9.0000E-04  9.0000E-04  9.0000E-04  9.0000E-04  9.0000E-04  2.7000E-03  9.0000E-03
       9.0000E-03  2.7000E-03  2.7000E-03  2.7000E-03  2.7000E-03  2.7000E-03  2.7000E-03  2.7000E-03  2.7000E-03
  61    0.000       0.000      4.5000E-04  4.5000E-04  4.5000E-04  4.5000E-04  4.5000E-04  4.5000E-04  4.5000E-04  4.5000E-04
       4.5000E-04   0.000       0.000       0.000       0.000       0.000       0.000      4.5000E-04  4.5000E-04  9.0000E-04
       9.0000E-04  9.0000E-04  9.0000E-04  9.0000E-04  9.0000E-04  9.0000E-04  9.0000E-04  9.0000E-04  9.0000E-04  9.0000E-04
       2.7000E-03  2.7000E-03  2.7000E-03  9.0000E-03  9.0000E-03  9.0000E-03  2.7000E-02  2.7000E-02  2.7000E-02  2.7000E-03
       9.0000E-04  9.0000E-04  4.5000E-04  4.5000E-04  4.5000E-04  4.5000E-04  4.5000E-04  4.5000E-04  9.0000E-04  9.0000E-04
       9.0000E-03  9.0000E-03  9.0000E-04  9.0000E-04  9.0000E-04  9.0000E-04  9.0000E-04  9.0000E-04  9.0000E-04  9.0000E-04
       9.0000E-04  9.0000E-04  9.0000E-04  9.0000E-04  9.0000E-04  9.0000E-04  9.0000E-04  9.0000E-04  2.7000E-03  9.0000E-03
       9.0000E-03  2.7000E-03  2.7000E-03  2.7000E-03  2.7000E-03  2.7000E-03  2.7000E-03  2.7000E-03  2.7000E-03
  62    0.000       0.000       0.000      4.5000E-04   0.000       0.000       0.000       0.000       0.000       0.000    
        0.000       0.000       0.000       0.000       0.000       0.000       0.000       0.000       0.000      4.5000E-04
       9.0000E-04  9.0000E-04  9.0000E-04  9.0000E-04  9.0000E-04  9.0000E-04  9.0000E-04  9.0000E-04  9.0000E-04  9.0000E-04
       2.7000E-03  2.7000E-03  2.7000E-03  9.0000E-03  9.0000E-03  9.0000E-03  2.7000E-02  2.7000E-02  9.0000E-03  2.7000E-03
       9.0000E-04  9.0000E-04  4.5000E-04  4.5000E-04  4.5000E-04  4.5000E-04  4.5000E-04  4.5000E-04  9.0000E-04  9.0000E-04
       9.0000E-04  9.0000E-04  9.0000E-03  9.0000E-04  9.0000E-04  9.0000E-04  9.0000E-04  9.0000E-04  9.0000E-04  9.0000E-04
       9.0000E-04  9.0000E-04  9.0000E-04  9.0000E-04  9.0000E-04  9.0000E-04  9.0000E-04  9.0000E-04  2.7000E-03  9.0000E-03
       2.7000E-03  2.7000E-03  2.7000E-03  2.7000E-03  2.7000E-03  2.7000E-03  2.7000E-03  9.0000E-04  9.0000E-04
  63    0.000       0.000       0.000       0.000       0.000       0.000       0.000       0.000       0.000       0.000    
        0.000       0.000       0.000       0.000       0.000       0.000       0.000       0.000       0.000      4.5000E-04
       4.5000E-04  4.5000E-04  9.0000E-04  9.0000E-04  9.0000E-04  9.0000E-04  9.0000E-04  9.0000E-04  9.0000E-04  9.0000E-04
       9.0000E-04  2.7000E-03  2.7000E-03  9.0000E-03  9.0000E-03  9.0000E-03  2.7000E-02  2.7000E-02  9.0000E-03  2.7000E-03
       2.7000E-03  9.0000E-04  9.0000E-04  4.5000E-04  4.5000E-04  4.5000E-04  4.5000E-04  4.5000E-04  4.5000E-04  4.5000E-04
       9.0000E-04  9.0000E-04  9.0000E-03  9.0000E-03  9.0000E-04  9.0000E-04  9.0000E-04  9.0000E-04  9.0000E-04  9.0000E-04
       9.0000E-04  9.0000E-04  9.0000E-04  9.0000E-04  9.0000E-04  9.0000E-04  9.0000E-04  9.0000E-04  2.7000E-03  2.7000E-03
       2.7000E-03  2.7000E-03  2.7000E-03  2.7000E-03  2.7000E-03  2.7000E-03  2.7000E-03  9.0000E-04  9.0000E-04
  64    0.000       0.000       0.000       0.000       0.000       0.000       0.000       0.000       0.000       0.000    
        0.000       0.000       0.000       0.000       0.000       0.000       0.000       0.000       0.000       0.000    
        0.000       0.000       0.000       0.000      9.0000E-04  9.0000E-04  9.0000E-04  9.0000E-04  9.0000E-04  9.0000E-04
       9.0000E-04  9.0000E-04  2.7000E-03  2.7000E-03  9.0000E-03  9.0000E-03  9.0000E-03  2.7000E-02  2.7000E-02  9.0000E-03
       9.0000E-04  9.0000E-04  9.0000E-04  4.5000E-04  4.5000E-04  4.5000E-04  4.5000E-04  4.5000E-04  4.5000E-04  4.5000E-04
       9.0000E-04  9.0000E-04  2.7000E-03  9.0000E-03  9.0000E-04  9.0000E-04  9.0000E-04  9.0000E-04  9.0000E-04  9.0000E-04
       9.0000E-04  9.0000E-04  9.0000E-04  9.0000E-04  9.0000E-04  9.0000E-04  9.0000E-04  2.7000E-03  2.7000E-03  2.7000E-03
       2.7000E-03  2.7000E-03  2.7000E-03  2.7000E-03  2.7000E-03  2.7000E-03  9.0000E-04  9.0000E-04  9.0000E-04
  65    0.000       0.000       0.000       0.000       0.000       0.000       0.000       0.000       0.000       0.000    
        0.000       0.000       0.000       0.000       0.000       0.000       0.000       0.000       0.000       0.000    
        0.000       0.000       0.000       0.000       0.000       0.000       0.000       0.000       0.000       0.000    
        0.000       0.000       0.000      2.7000E-03  9.0000E-03  9.0000E-03  9.0000E-03  9.0000E-03  9.0000E-03  9.0000E-03
       9.0000E-04  9.0000E-04  9.0000E-04  4.5000E-04  4.5000E-04   0.000       0.000       0.000       0.000      4.5000E-04
       4.5000E-04  9.0000E-04  2.7000E-03  2.7000E-03  9.0000E-04  9.0000E-04  9.0000E-04  9.0000E-04  9.0000E-04  9.0000E-04
       9.0000E-04  9.0000E-04  9.0000E-04  9.0000E-04  9.0000E-04  9.0000E-04  9.0000E-04  2.7000E-03  2.7000E-03  2.7000E-03
       2.7000E-03  2.7000E-03  2.7000E-03  2.7000E-03  2.7000E-03  2.7000E-03  2.7000E-03  9.0000E-04  9.0000E-04
  66    0.000       0.000       0.000       0.000       0.000       0.000       0.000       0.000       0.000       0.000    
        0.000       0.000       0.000       0.000       0.000       0.000       0.000       0.000       0.000       0.000    
        0.000       0.000       0.000       0.000       0.000       0.000       0.000       0.000       0.000       0.000    
        0.000       0.000       0.000       0.000       0.000      2.7000E-03  2.7000E-03   0.000       0.000       0.000    
        0.000       0.000       0.000       0.000       0.000       0.000       0.000       0.000       0.000       0.000    
       4.5000E-04  9.0000E-04  2.7000E-03  2.7000E-03  2.7000E-03  9.0000E-04  9.0000E-04  9.0000E-04  9.0000E-04  9.0000E-04
       9.0000E-04  9.0000E-04  9.0000E-04  9.0000E-04  9.0000E-04  9.0000E-04  9.0000E-04  9.0000E-04  2.7000E-03  2.7000E-03
       2.7000E-03  2.7000E-03  2.7000E-03  2.7000E-03  2.7000E-03  2.7000E-03  2.7000E-03  9.0000E-04  9.0000E-04
  67    0.000       0.000       0.000       0.000       0.000       0.000       0.000       0.000       0.000       0.000    
        0.000       0.000       0.000       0.000       0.000       0.000       0.000       0.000       0.000       0.000    
        0.000       0.000       0.000       0.000       0.000       0.000       0.000       0.000       0.000       0.000    
        0.000       0.000       0.000       0.000       0.000       0.000       0.000       0.000       0.000       0.000    
        0.000       0.000       0.000       0.000       0.000       0.000       0.000       0.000       0.000       0.000    
        0.000       0.000      4.5000E-04  2.7000E-03  9.0000E-04  9.0000E-04  9.0000E-04  9.0000E-04  9.0000E-04  4.5000E-04
       4.5000E-04  4.5000E-04  4.5000E-04  4.5000E-04  9.0000E-04  9.0000E-04  9.0000E-04  9.0000E-04  2.7000E-03  2.7000E-03
       2.7000E-03   0.000       0.000       0.000       0.000       0.000       0.000       0.000       0.000    
  68    0.000       0.000       0.000       0.000       0.000       0.000       0.000       0.000       0.000       0.000    
        0.000       0.000       0.000       0.000       0.000       0.000       0.000       0.000       0.000       0.000    
        0.000       0.000       0.000       0.000       0.000       0.000       0.000       0.000       0.000       0.000    
        0.000       0.000       0.000       0.000       0.000       0.000       0.000       0.000       0.000       0.000    
        0.000       0.000       0.000       0.000       0.000       0.000       0.000       0.000       0.000       0.000    
        0.000       0.000       0.000      4.5000E-04  9.0000E-04  9.0000E-04  9.0000E-04  4.5000E-04  4.5000E-04  4.5000E-04
       4.5000E-04  4.5000E-04  4.5000E-04  4.5000E-04  9.0000E-04  9.0000E-04  9.0000E-04  2.7000E-03   0.000       0.000    
        0.000       0.000       0.000       0.000       0.000       0.000       0.000       0.000       0.000    
  69    0.000       0.000       0.000       0.000       0.000       0.000       0.000       0.000       0.000       0.000    
        0.000       0.000       0.000       0.000       0.000       0.000       0.000       0.000       0.000       0.000    
        0.000       0.000       0.000       0.000       0.000       0.000       0.000       0.000       0.000       0.000    
        0.000       0.000       0.000       0.000       0.000       0.000       0.000       0.000       0.000       0.000    
        0.000       0.000       0.000       0.000       0.000       0.000       0.000       0.000       0.000       0.000    
        0.000       0.000       0.000       0.000       0.000       0.000       0.000       0.000       0.000       0.000    
       4.5000E-04  4.5000E-04  4.5000E-04  4.5000E-04  2.7000E-03  2.7000E-03  2.7000E-03   0.000       0.000       0.000    
        0.000       0.000       0.000       0.000       0.000       0.000       0.000       0.000       0.000    
  70    0.000       0.000       0.000       0.000       0.000       0.000       0.000       0.000       0.000       0.000    
        0.000       0.000       0.000       0.000       0.000       0.000       0.000       0.000       0.000       0.000    
        0.000       0.000       0.000       0.000       0.000       0.000       0.000       0.000       0.000       0.000    
        0.000       0.000       0.000       0.000       0.000       0.000       0.000       0.000       0.000       0.000    
        0.000       0.000       0.000       0.000       0.000       0.000       0.000       0.000       0.000       0.000    
        0.000       0.000       0.000       0.000       0.000       0.000       0.000       0.000       0.000       0.000    
        0.000      4.5000E-04  4.5000E-04  4.5000E-04  2.7000E-03  2.7000E-03   0.000       0.000       0.000       0.000    
        0.000       0.000       0.000       0.000       0.000       0.000       0.000       0.000       0.000    
  71    0.000       0.000       0.000       0.000       0.000       0.000       0.000       0.000       0.000       0.000    
        0.000       0.000       0.000       0.000       0.000       0.000       0.000       0.000       0.000       0.000    
        0.000       0.000       0.000       0.000       0.000       0.000       0.000       0.000       0.000       0.000    
        0.000       0.000       0.000       0.000       0.000       0.000       0.000       0.000       0.000       0.000    
        0.000       0.000       0.000       0.000       0.000       0.000       0.000       0.000       0.000       0.000    
        0.000       0.000       0.000       0.000       0.000       0.000       0.000       0.000       0.000       0.000    
        0.000       0.000      4.5000E-04  9.0000E-04   0.000       0.000       0.000       0.000       0.000       0.000    
        0.000       0.000       0.000       0.000       0.000       0.000       0.000       0.000       0.000    



                VERTICAL HYD. COND. FOR LAYER   3
 READING ON UNIT   12 WITH FORMAT: (FREE)              

            1           2           3           4           5           6           7           8           9          10
           11          12          13          14          15          16          17          18          19          20
           21          22          23          24          25          26          27          28          29          30
           31          32          33          34          35          36          37          38          39          40
           41          42          43          44          45          46          47          48          49          50
           51          52          53          54          55          56          57          58          59          60
           61          62          63          64          65          66          67          68          69          70
           71          72          73          74          75          76          77          78          79
 ........................................................................................................................
   1    0.000       0.000       0.000       0.000       0.000       0.000       0.000       0.000       0.000       0.000    
        0.000       0.000       0.000       0.000       0.000       0.000       0.000       0.000       0.000       0.000    
        0.000       0.000       0.000       0.000       0.000       0.000       0.000       0.000       0.000       0.000    
        0.000       0.000       0.000       0.000       0.000       0.000       0.000       0.000       0.000       0.000    
        0.000       0.000       0.000       0.000       0.000       0.000       0.000       0.000       0.000       0.000    
        0.000      4.5000E-04  4.5000E-04   0.000       0.000       0.000       0.000       0.000       0.000       0.000    
        0.000       0.000       0.000       0.000       0.000       0.000       0.000       0.000       0.000       0.000    
        0.000       0.000       0.000       0.000       0.000       0.000       0.000       0.000       0.000    
   2    0.000       0.000       0.000       0.000       0.000       0.000       0.000       0.000       0.000       0.000    
        0.000       0.000       0.000       0.000       0.000       0.000       0.000       0.000       0.000       0.000    
        0.000       0.000       0.000       0.000       0.000       0.000       0.000       0.000       0.000       0.000    
        0.000       0.000       0.000       0.000       0.000       0.000       0.000       0.000       0.000       0.000    
        0.000       0.000       0.000       0.000       0.000       0.000       0.000       0.000       0.000       0.000    
        0.000      4.5000E-04  2.7000E-03  2.7000E-03   0.000       0.000       0.000       0.000       0.000       0.000    
        0.000       0.000       0.000       0.000       0.000       0.000       0.000       0.000       0.000       0.000    
        0.000       0.000       0.000       0.000       0.000       0.000       0.000       0.000       0.000    
   3    0.000       0.000       0.000       0.000       0.000       0.000       0.000       0.000       0.000       0.000    
        0.000       0.000       0.000       0.000       0.000       0.000       0.000       0.000       0.000       0.000    
        0.000       0.000       0.000       0.000       0.000       0.000       0.000       0.000       0.000       0.000    
        0.000       0.000       0.000       0.000       0.000       0.000       0.000       0.000       0.000       0.000    
        0.000       0.000       0.000       0.000       0.000       0.000       0.000       0.000       0.000       0.000    
        0.000      4.5000E-04  2.7000E-03  9.0000E-03   0.000       0.000       0.000       0.000       0.000       0.000    
        0.000       0.000       0.000       0.000       0.000       0.000       0.000       0.000       0.000       0.000    
        0.000       0.000       0.000       0.000       0.000       0.000       0.000       0.000       0.000    
   4    0.000       0.000       0.000       0.000       0.000       0.000       0.000       0.000       0.000       0.000    
        0.000       0.000       0.000       0.000       0.000       0.000       0.000       0.000       0.000       0.000    
        0.000       0.000       0.000       0.000       0.000       0.000       0.000       0.000       0.000       0.000    
        0.000       0.000       0.000       0.000       0.000       0.000       0.000       0.000       0.000       0.000    
        0.000       0.000       0.000       0.000       0.000       0.000       0.000       0.000       0.000       0.000    
        0.000      2.7000E-03  2.7000E-03  9.0000E-03  9.0000E-03   0.000       0.000       0.000       0.000       0.000    
        0.000       0.000       0.000       0.000       0.000       0.000       0.000       0.000       0.000       0.000    
        0.000       0.000       0.000       0.000       0.000       0.000       0.000       0.000       0.000    
   5    0.000       0.000       0.000       0.000       0.000       0.000       0.000       0.000       0.000       0.000    
        0.000       0.000       0.000       0.000       0.000       0.000       0.000       0.000       0.000       0.000    
        0.000       0.000       0.000       0.000       0.000       0.000       0.000       0.000       0.000       0.000    
        0.000       0.000       0.000       0.000       0.000       0.000       0.000       0.000       0.000       0.000    
        0.000       0.000       0.000       0.000       0.000       0.000       0.000       0.000       0.000       0.000    
        0.000      2.7000E-03  2.7000E-03  2.7000E-03  9.0000E-03  2.7000E-03  2.7000E-03   0.000       0.000       0.000    
        0.000       0.000       0.000       0.000       0.000       0.000       0.000       0.000       0.000       0.000    
        0.000       0.000       0.000       0.000       0.000       0.000       0.000       0.000       0.000    
   6    0.000       0.000       0.000       0.000       0.000       0.000       0.000       0.000       0.000       0.000    
        0.000       0.000       0.000       0.000       0.000       0.000       0.000       0.000       0.000       0.000    
        0.000       0.000       0.000       0.000       0.000       0.000       0.000       0.000       0.000       0.000    
        0.000       0.000       0.000       0.000       0.000       0.000       0.000       0.000       0.000       0.000    
        0.000       0.000       0.000       0.000       0.000       0.000       0.000       0.000       0.000       0.000    
        0.000      2.7000E-03  2.7000E-03  2.7000E-03  9.0000E-03  9.0000E-03  2.7000E-03  2.7000E-03  2.7000E-03   0.000    
        0.000       0.000       0.000      2.7000E-03  2.7000E-03   0.000       0.000       0.000       0.000       0.000    
        0.000       0.000       0.000       0.000       0.000       0.000       0.000       0.000       0.000    
   7    0.000       0.000       0.000       0.000       0.000       0.000       0.000       0.000       0.000       0.000    
        0.000       0.000       0.000       0.000       0.000       0.000       0.000       0.000       0.000       0.000    
        0.000       0.000       0.000       0.000       0.000       0.000       0.000       0.000       0.000       0.000    
        0.000       0.000       0.000       0.000       0.000       0.000       0.000       0.000       0.000       0.000    
        0.000       0.000       0.000       0.000       0.000       0.000       0.000       0.000       0.000       0.000    
        0.000      2.7000E-03  2.7000E-03  2.7000E-03  9.0000E-03  9.0000E-03  9.0000E-03  2.7000E-03  2.7000E-03  2.7000E-03
       2.7000E-03  2.7000E-03  2.7000E-03  2.7000E-03  2.7000E-03  2.7000E-03   0.000       0.000       0.000       0.000    
        0.000       0.000       0.000       0.000       0.000       0.000       0.000       0.000       0.000    
   8    0.000       0.000       0.000       0.000       0.000       0.000       0.000       0.000       0.000       0.000    
        0.000       0.000       0.000       0.000       0.000       0.000       0.000       0.000       0.000       0.000    
        0.000       0.000       0.000       0.000       0.000       0.000       0.000       0.000       0.000       0.000    
        0.000       0.000       0.000       0.000       0.000       0.000       0.000       0.000       0.000       0.000    
        0.000       0.000       0.000       0.000       0.000       0.000       0.000       0.000       0.000       0.000    
        0.000      2.7000E-03  2.7000E-03  2.7000E-03  9.0000E-03  9.0000E-03  9.0000E-03  2.7000E-03  2.7000E-03  2.7000E-03
       2.7000E-03  2.7000E-03  2.7000E-03  2.7000E-03  2.7000E-03  2.7000E-03  2.7000E-03  2.7000E-03   0.000       0.000    
        0.000       0.000       0.000       0.000       0.000       0.000       0.000       0.000       0.000    
   9    0.000       0.000       0.000       0.000       0.000       0.000       0.000       0.000       0.000       0.000    
        0.000       0.000       0.000       0.000       0.000       0.000       0.000       0.000       0.000       0.000    
        0.000       0.000       0.000       0.000       0.000       0.000       0.000       0.000       0.000       0.000    
        0.000       0.000       0.000       0.000       0.000       0.000       0.000       0.000       0.000       0.000    
        0.000       0.000       0.000       0.000       0.000       0.000       0.000       0.000       0.000       0.000    
       9.0000E-04  2.7000E-03  2.7000E-03  2.7000E-03  9.0000E-03  9.0000E-03  9.0000E-03  2.7000E-03  2.7000E-03  2.7000E-03
       2.7000E-03  2.7000E-03  2.7000E-03  2.7000E-03  2.7000E-03  2.7000E-03  2.7000E-03  2.7000E-03  2.7000E-03   0.000    
        0.000       0.000       0.000       0.000       0.000       0.000       0.000       0.000       0.000    
  10    0.000       0.000       0.000       0.000       0.000       0.000       0.000       0.000       0.000       0.000    
        0.000       0.000       0.000       0.000       0.000       0.000       0.000       0.000       0.000       0.000    
        0.000       0.000       0.000       0.000       0.000       0.000       0.000       0.000       0.000       0.000    
        0.000       0.000       0.000       0.000       0.000       0.000       0.000       0.000       0.000       0.000    
        0.000       0.000       0.000       0.000       0.000       0.000       0.000       0.000       0.000      2.7000E-03
       2.7000E-03  2.7000E-03  2.7000E-03  2.7000E-03  2.7000E-03  9.0000E-03  9.0000E-03  9.0000E-03  2.7000E-03  2.7000E-03
       2.7000E-03  2.7000E-03  2.7000E-03  2.7000E-03  2.7000E-03  2.7000E-03  2.7000E-03  2.7000E-03  2.7000E-03  2.7000E-03
        0.000       0.000       0.000       0.000       0.000       0.000       0.000       0.000       0.000    
  11    0.000       0.000       0.000       0.000       0.000       0.000       0.000       0.000       0.000       0.000    
        0.000       0.000       0.000       0.000       0.000       0.000       0.000       0.000       0.000       0.000    
        0.000       0.000       0.000       0.000       0.000       0.000       0.000       0.000       0.000       0.000    
        0.000       0.000       0.000       0.000       0.000       0.000       0.000       0.000       0.000       0.000    
        0.000       0.000       0.000       0.000       0.000       0.000       0.000       0.000      2.7000E-03  2.7000E-03
       2.7000E-03  2.7000E-03  2.7000E-03  2.7000E-03  2.7000E-03  9.0000E-03  9.0000E-03  9.0000E-03  2.7000E-03  2.7000E-03
       2.7000E-03  2.7000E-03  2.7000E-03  2.7000E-03  2.7000E-03  2.7000E-03  2.7000E-03  2.7000E-03  2.7000E-03  2.7000E-03
       2.7000E-03   0.000       0.000       0.000       0.000       0.000       0.000       0.000       0.000    
  12    0.000       0.000       0.000       0.000       0.000       0.000       0.000       0.000       0.000       0.000    
        0.000       0.000       0.000       0.000       0.000       0.000       0.000       0.000       0.000       0.000    
        0.000       0.000       0.000       0.000       0.000       0.000       0.000       0.000       0.000       0.000    
        0.000       0.000       0.000       0.000       0.000       0.000       0.000       0.000       0.000       0.000    
        0.000      9.0000E-04  9.0000E-04   0.000       0.000       0.000       0.000      9.0000E-04  2.7000E-03  2.7000E-03
       2.7000E-03  2.7000E-03  2.7000E-03  2.7000E-03  2.7000E-03  9.0000E-03  9.0000E-03  9.0000E-03  2.7000E-03  2.7000E-03
       2.7000E-03  2.7000E-03  2.7000E-03  2.7000E-03  2.7000E-03  2.7000E-03  2.7000E-03  2.7000E-03  2.7000E-03  2.7000E-03
       2.7000E-03   0.000       0.000       0.000       0.000       0.000       0.000       0.000       0.000    
  13    0.000       0.000       0.000       0.000       0.000       0.000       0.000       0.000       0.000       0.000    
        0.000       0.000       0.000       0.000       0.000       0.000       0.000       0.000       0.000       0.000    
        0.000       0.000       0.000       0.000       0.000       0.000       0.000       0.000       0.000       0.000    
        0.000       0.000       0.000       0.000       0.000       0.000       0.000       0.000      9.0000E-04  9.0000E-04
       9.0000E-04  9.0000E-04  9.0000E-04  9.0000E-04  9.0000E-04  9.0000E-04  9.0000E-04  9.0000E-04  2.7000E-03  2.7000E-03
       2.7000E-03  2.7000E-03  2.7000E-03  2.7000E-03  2.7000E-03  9.0000E-03  9.0000E-03  9.0000E-03  2.7000E-03  2.7000E-03
       2.7000E-03  2.7000E-03  2.7000E-03  2.7000E-03  2.7000E-03  2.7000E-03  2.7000E-03  2.7000E-03  2.7000E-03  2.7000E-03
       2.7000E-03  2.7000E-03   0.000       0.000       0.000       0.000       0.000       0.000       0.000    
  14    0.000       0.000       0.000       0.000       0.000       0.000       0.000       0.000       0.000       0.000    
        0.000       0.000       0.000       0.000       0.000       0.000       0.000       0.000       0.000       0.000    
        0.000       0.000       0.000       0.000       0.000       0.000       0.000       0.000       0.000       0.000    
        0.000       0.000       0.000       0.000       0.000       0.000       0.000       0.000      9.0000E-04  9.0000E-04
       9.0000E-04  9.0000E-04  9.0000E-04  9.0000E-04  2.7000E-03  2.7000E-03  2.7000E-03  2.7000E-03  2.7000E-03  2.7000E-03
       2.7000E-03  2.7000E-03  2.7000E-03  2.7000E-03  2.7000E-03  9.0000E-03  9.0000E-03  9.0000E-03  9.0000E-03  9.0000E-03
       2.7000E-03  2.7000E-03  2.7000E-03  2.7000E-03  2.7000E-03  2.7000E-03  2.7000E-03  9.0000E-03  2.7000E-03  2.7000E-03
       2.7000E-03  2.7000E-03  2.7000E-03   0.000       0.000       0.000       0.000       0.000       0.000    
  15    0.000       0.000       0.000       0.000       0.000       0.000       0.000       0.000       0.000       0.000    
        0.000       0.000       0.000       0.000       0.000       0.000       0.000       0.000       0.000       0.000    
        0.000       0.000       0.000       0.000       0.000       0.000       0.000       0.000       0.000       0.000    
        0.000       0.000       0.000       0.000       0.000       0.000       0.000      9.0000E-04  9.0000E-04  9.0000E-04
       2.7000E-03  2.7000E-03  2.7000E-03  2.7000E-03  2.7000E-03  2.7000E-03  2.7000E-03  2.7000E-03  2.7000E-03  2.7000E-03
       2.7000E-03  2.7000E-03  2.7000E-03  2.7000E-03  2.7000E-03  2.7000E-03  9.0000E-03  9.0000E-03  9.0000E-03  9.0000E-03
       9.0000E-03  2.7000E-03  2.7000E-03  9.0000E-03  9.0000E-03  9.0000E-03  9.0000E-03  9.0000E-03  9.0000E-03  2.7000E-03
       2.7000E-03  2.7000E-03  2.7000E-03   0.000       0.000       0.000       0.000       0.000       0.000    
  16    0.000       0.000       0.000       0.000       0.000       0.000       0.000       0.000       0.000       0.000    
        0.000       0.000       0.000       0.000       0.000       0.000       0.000       0.000       0.000       0.000    
        0.000       0.000       0.000       0.000       0.000       0.000       0.000       0.000       0.000       0.000    
        0.000       0.000       0.000       0.000       0.000       0.000      9.0000E-04  9.0000E-04  9.0000E-04  9.0000E-04
       9.0000E-04  2.7000E-03  2.7000E-03  2.7000E-03  2.7000E-03  2.7000E-03  2.7000E-03  2.7000E-03  2.7000E-03  2.7000E-03
       2.7000E-03  2.7000E-03  2.7000E-03  2.7000E-03  2.7000E-03  2.7000E-03  9.0000E-03  9.0000E-03  9.0000E-03  9.0000E-03
       9.0000E-03  9.0000E-03  9.0000E-03  9.0000E-03  9.0000E-03  9.0000E-03  9.0000E-03  9.0000E-03  9.0000E-03  2.7000E-03
       2.7000E-03  2.7000E-03  2.7000E-03  2.7000E-03   0.000       0.000       0.000       0.000       0.000    
  17    0.000       0.000       0.000       0.000       0.000       0.000       0.000       0.000       0.000       0.000    
        0.000       0.000       0.000       0.000       0.000       0.000       0.000       0.000       0.000       0.000    
        0.000       0.000       0.000       0.000       0.000       0.000       0.000       0.000       0.000       0.000    
        0.000       0.000       0.000       0.000       0.000      9.0000E-04  9.0000E-04  9.0000E-04  9.0000E-04  9.0000E-04
       9.0000E-04  2.7000E-03  2.7000E-03  2.7000E-03  2.7000E-03  2.7000E-03  2.7000E-03  2.7000E-03  2.7000E-03  2.7000E-03
       2.7000E-03  2.7000E-03  2.7000E-03  2.7000E-03  2.7000E-03  2.7000E-03  9.0000E-03  9.0000E-03  9.0000E-03  9.0000E-03
       9.0000E-03  9.0000E-03  9.0000E-03  9.0000E-03  9.0000E-03  9.0000E-03  9.0000E-03  9.0000E-03  9.0000E-03  2.7000E-03
       2.7000E-03  2.7000E-03  2.7000E-03  2.7000E-03   0.000       0.000       0.000       0.000       0.000    
  18    0.000       0.000       0.000       0.000       0.000       0.000       0.000       0.000       0.000       0.000    
        0.000       0.000       0.000       0.000       0.000       0.000       0.000       0.000       0.000       0.000    
        0.000       0.000       0.000       0.000       0.000       0.000       0.000       0.000       0.000       0.000    
        0.000       0.000       0.000       0.000      9.0000E-04  9.0000E-04  9.0000E-04  9.0000E-04  9.0000E-04  9.0000E-04
       9.0000E-04  9.0000E-04  9.0000E-04  2.7000E-03  2.7000E-03  2.7000E-03  2.7000E-03  2.7000E-03  2.7000E-03  2.7000E-03
       2.7000E-03  2.7000E-03  2.7000E-03  2.7000E-03  2.7000E-03  2.7000E-03  9.0000E-03  9.0000E-03  9.0000E-03  9.0000E-03
       9.0000E-03  9.0000E-03  9.0000E-03  9.0000E-03  9.0000E-03  9.0000E-03  9.0000E-03  9.0000E-03  9.0000E-03  9.0000E-03
       2.7000E-03  2.7000E-03  2.7000E-03  2.7000E-03   0.000       0.000       0.000       0.000       0.000    
  19    0.000       0.000       0.000       0.000       0.000       0.000       0.000       0.000       0.000       0.000    
        0.000       0.000       0.000       0.000       0.000       0.000       0.000       0.000       0.000       0.000    
        0.000       0.000       0.000       0.000       0.000       0.000       0.000       0.000       0.000       0.000    
        0.000       0.000       0.000      9.0000E-04  9.0000E-04  9.0000E-04  9.0000E-04  9.0000E-04  9.0000E-04  9.0000E-04
       9.0000E-04  9.0000E-04  9.0000E-04  9.0000E-04  2.7000E-03  2.7000E-03  2.7000E-03  2.7000E-03  2.7000E-03  2.7000E-03
       2.7000E-03  2.7000E-03  2.7000E-03  2.7000E-03  2.7000E-03  2.7000E-03  2.7000E-03  9.0000E-03  9.0000E-03  9.0000E-03
       9.0000E-03  9.0000E-03  9.0000E-03  9.0000E-03  9.0000E-03  9.0000E-03  9.0000E-03  9.0000E-03  9.0000E-03  9.0000E-03
       2.7000E-03  2.7000E-03  2.7000E-03  2.7000E-03   0.000       0.000       0.000       0.000       0.000    
  20    0.000       0.000       0.000       0.000       0.000       0.000       0.000       0.000       0.000       0.000    
        0.000       0.000       0.000       0.000       0.000       0.000       0.000       0.000       0.000       0.000    
        0.000       0.000       0.000       0.000       0.000       0.000       0.000       0.000       0.000       0.000    
        0.000       0.000       0.000      4.5000E-04  9.0000E-04  9.0000E-04  9.0000E-04  9.0000E-04  9.0000E-04  9.0000E-04
       9.0000E-04  9.0000E-04  9.0000E-04  9.0000E-04  2.7000E-03  2.7000E-03  2.7000E-03  2.7000E-03  2.7000E-03  2.7000E-03
       2.7000E-03  2.7000E-03  2.7000E-03  2.7000E-03  2.7000E-03  2.7000E-03  2.7000E-03  9.0000E-03  9.0000E-03  9.0000E-03
       9.0000E-03  9.0000E-03  9.0000E-03  9.0000E-03  9.0000E-03  9.0000E-03  9.0000E-03  9.0000E-03  9.0000E-03  9.0000E-03
       2.7000E-03  2.7000E-03  2.7000E-03  2.7000E-03   0.000       0.000       0.000       0.000       0.000    
  21    0.000       0.000       0.000       0.000       0.000       0.000       0.000       0.000       0.000       0.000    
        0.000       0.000       0.000       0.000       0.000       0.000       0.000       0.000       0.000       0.000    
        0.000       0.000       0.000       0.000       0.000       0.000       0.000       0.000       0.000       0.000    
        0.000       0.000      4.5000E-04  4.5000E-04  9.0000E-04  4.5000E-04  9.0000E-04  9.0000E-04  9.0000E-04  9.0000E-04
       9.0000E-04  9.0000E-04  9.0000E-04  9.0000E-04  9.0000E-04  2.7000E-03  2.7000E-03  2.7000E-03  2.7000E-03  2.7000E-03
       2.7000E-03  2.7000E-03  2.7000E-03  2.7000E-03  2.7000E-03  2.7000E-03  2.7000E-03  2.7000E-03  9.0000E-03  9.0000E-03
       9.0000E-03  9.0000E-03  9.0000E-03  9.0000E-03  9.0000E-03  9.0000E-03  9.0000E-03  9.0000E-03  9.0000E-03  2.7000E-03
       2.7000E-03  2.7000E-03  2.7000E-03  2.7000E-03  2.7000E-03   0.000       0.000       0.000       0.000    
  22    0.000       0.000       0.000       0.000       0.000       0.000       0.000       0.000       0.000       0.000    
        0.000       0.000       0.000       0.000       0.000       0.000       0.000       0.000       0.000       0.000    
        0.000       0.000       0.000       0.000       0.000       0.000       0.000       0.000       0.000       0.000    
        0.000       0.000      4.5000E-04  4.5000E-04  4.5000E-04  4.5000E-04  9.0000E-04  9.0000E-04  9.0000E-04  9.0000E-04
       9.0000E-04  9.0000E-04  9.0000E-04  9.0000E-04  9.0000E-04  2.7000E-03  2.7000E-03  2.7000E-03  2.7000E-03  2.7000E-03
       2.7000E-03  2.7000E-03  2.7000E-03  2.7000E-03  2.7000E-03  2.7000E-03  2.7000E-03  2.7000E-03  2.7000E-03  2.7000E-03
       2.7000E-03  9.0000E-03  9.0000E-03  9.0000E-03  9.0000E-03  9.0000E-03  9.0000E-03  9.0000E-03  9.0000E-03  2.7000E-03
       2.7000E-03  2.7000E-03  2.7000E-03  2.7000E-03   0.000       0.000       0.000       0.000       0.000    
  23    0.000       0.000       0.000       0.000       0.000       0.000       0.000       0.000       0.000       0.000    
        0.000       0.000       0.000       0.000       0.000       0.000       0.000       0.000       0.000       0.000    
        0.000       0.000       0.000       0.000       0.000       0.000       0.000       0.000       0.000       0.000    
        0.000      4.5000E-04  4.5000E-04  4.5000E-04  4.5000E-04  9.0000E-04  9.0000E-04  9.0000E-04  9.0000E-04  9.0000E-04
       9.0000E-04  9.0000E-04  9.0000E-04  9.0000E-04  9.0000E-04  2.7000E-03  2.7000E-03  9.0000E-03  2.7000E-03  2.7000E-03
       2.7000E-03  2.7000E-03  2.7000E-03  2.7000E-03  2.7000E-03  2.7000E-03  2.7000E-03  2.7000E-03  2.7000E-03  2.7000E-03
       2.7000E-03  2.7000E-03  9.0000E-03  9.0000E-03  9.0000E-03  9.0000E-03  9.0000E-03  9.0000E-03  9.0000E-03  2.7000E-03
       2.7000E-03   0.000       0.000       0.000       0.000       0.000       0.000       0.000       0.000    
  24    0.000       0.000       0.000       0.000       0.000       0.000       0.000       0.000       0.000       0.000    
        0.000       0.000       0.000       0.000       0.000       0.000       0.000       0.000       0.000       0.000    
        0.000       0.000       0.000       0.000       0.000       0.000       0.000       0.000      4.5000E-04  4.5000E-04
       4.5000E-04  4.5000E-04  4.5000E-04  4.5000E-04  4.5000E-04  9.0000E-04  9.0000E-04  9.0000E-04  9.0000E-04  9.0000E-04
       9.0000E-04  9.0000E-04  9.0000E-04  9.0000E-04  9.0000E-04  2.7000E-03  2.7000E-03  9.0000E-03  9.0000E-03  2.7000E-03
       2.7000E-03  2.7000E-03  2.7000E-03  2.7000E-03  2.7000E-03  2.7000E-03  2.7000E-03  2.7000E-03  2.7000E-03  2.7000E-03
       2.7000E-03  2.7000E-03  2.7000E-03  9.0000E-03  9.0000E-03  9.0000E-03  9.0000E-03  9.0000E-03  9.0000E-03  2.7000E-03
       2.7000E-03   0.000       0.000       0.000       0.000       0.000       0.000       0.000       0.000    
  25    0.000       0.000       0.000       0.000       0.000       0.000       0.000       0.000       0.000       0.000    
        0.000       0.000       0.000       0.000       0.000       0.000       0.000       0.000       0.000       0.000    
        0.000       0.000       0.000       0.000       0.000       0.000       0.000      4.5000E-04  4.5000E-04  4.5000E-04
       4.5000E-04  4.5000E-04  4.5000E-04  4.5000E-04  9.0000E-04  9.0000E-04  9.0000E-04  9.0000E-04  9.0000E-04  9.0000E-04
       9.0000E-04  9.0000E-04  9.0000E-04  9.0000E-04  2.7000E-03  2.7000E-03  2.7000E-03  9.0000E-03  9.0000E-03  2.7000E-03
       2.7000E-03  2.7000E-03  2.7000E-03  2.7000E-03  2.7000E-03  2.7000E-03  2.7000E-03  2.7000E-03  2.7000E-03  2.7000E-03
       2.7000E-03  2.7000E-03  2.7000E-03  2.7000E-03  2.7000E-03  9.0000E-03  9.0000E-03  9.0000E-03  9.0000E-03  2.7000E-03
       2.7000E-03   0.000       0.000       0.000       0.000       0.000       0.000       0.000       0.000    
  26    0.000       0.000       0.000       0.000       0.000       0.000       0.000       0.000       0.000       0.000    
        0.000       0.000       0.000       0.000       0.000       0.000       0.000       0.000       0.000       0.000    
        0.000       0.000       0.000       0.000       0.000      4.5000E-04  4.5000E-04  4.5000E-04  4.5000E-04  4.5000E-04
       4.5000E-04  4.5000E-04  4.5000E-04  9.0000E-04  9.0000E-04  9.0000E-04  9.0000E-04  9.0000E-04  9.0000E-04  9.0000E-04
       9.0000E-04  9.0000E-04  2.7000E-03  2.7000E-03  2.7000E-03  2.7000E-03  2.7000E-03  2.7000E-03  9.0000E-03  9.0000E-03
       9.0000E-03  2.7000E-03  2.7000E-03  2.7000E-03  2.7000E-03  2.7000E-03  2.7000E-03  2.7000E-03  2.7000E-03  2.7000E-03
       2.7000E-03  2.7000E-03  2.7000E-03  2.7000E-03  2.7000E-03  9.0000E-03  9.0000E-03  9.0000E-03  9.0000E-03  2.7000E-03
       2.7000E-03   0.000       0.000       0.000       0.000       0.000       0.000       0.000       0.000    
  27    0.000       0.000       0.000       0.000       0.000       0.000       0.000       0.000       0.000       0.000    
        0.000       0.000       0.000       0.000       0.000       0.000       0.000       0.000       0.000       0.000    
        0.000       0.000       0.000       0.000      4.5000E-04  4.5000E-04  4.5000E-04  4.5000E-04  4.5000E-04  4.5000E-04
       4.5000E-04  4.5000E-04  9.0000E-04  9.0000E-04  9.0000E-04  9.0000E-04  9.0000E-04  9.0000E-04  9.0000E-04  9.0000E-04
       9.0000E-04  2.7000E-03  2.7000E-03  2.7000E-03  2.7000E-03  2.7000E-03  2.7000E-03  2.7000E-03  2.7000E-03  9.0000E-03
       9.0000E-03  2.7000E-03  2.7000E-03  2.7000E-03  2.7000E-03  2.7000E-03  2.7000E-03  2.7000E-03  2.7000E-03  2.7000E-03
       2.7000E-03  2.7000E-03  2.7000E-03  2.7000E-03  2.7000E-03  9.0000E-03  9.0000E-03  9.0000E-03  9.0000E-03  9.0000E-03
       2.7000E-03   0.000       0.000       0.000       0.000       0.000       0.000       0.000       0.000    
  28    0.000       0.000       0.000       0.000       0.000       0.000       0.000       0.000       0.000       0.000    
        0.000       0.000       0.000       0.000       0.000       0.000       0.000       0.000       0.000       0.000    
        0.000       0.000       0.000      4.5000E-04  4.5000E-04  4.5000E-04  4.5000E-04  4.5000E-04  4.5000E-04  4.5000E-04
       4.5000E-04  9.0000E-04  9.0000E-04  9.0000E-04  9.0000E-04  9.0000E-04  9.0000E-04  9.0000E-04  2.7000E-03  2.7000E-03
       2.7000E-03  2.7000E-03  2.7000E-03  2.7000E-03  2.7000E-03  2.7000E-03  2.7000E-03  2.7000E-03  2.7000E-03  2.7000E-03
       9.0000E-03  9.0000E-03  2.7000E-03  2.7000E-03  2.7000E-03  2.7000E-03  2.7000E-03  2.7000E-03  2.7000E-03  2.7000E-03
       2.7000E-03  2.7000E-03  2.7000E-03  2.7000E-03  2.7000E-03  2.7000E-03  9.0000E-03  9.0000E-03  2.7000E-02  9.0000E-03
       2.7000E-03  2.7000E-03   0.000       0.000       0.000       0.000       0.000       0.000       0.000    
  29    0.000       0.000       0.000       0.000       0.000       0.000       0.000       0.000       0.000       0.000    
        0.000       0.000       0.000       0.000       0.000       0.000       0.000       0.000       0.000       0.000    
        0.000      4.5000E-04  4.5000E-04  4.5000E-04  4.5000E-04  4.5000E-04  4.5000E-04  4.5000E-04  4.5000E-04  9.0000E-04
       9.0000E-04  9.0000E-04  9.0000E-04  9.0000E-04  9.0000E-04  9.0000E-04  9.0000E-04  2.7000E-03  2.7000E-03  2.7000E-03
       2.7000E-03  2.7000E-03  2.7000E-03  2.7000E-03  2.7000E-03  2.7000E-03  2.7000E-03  2.7000E-03  2.7000E-03  2.7000E-03
       9.0000E-03  9.0000E-03  2.7000E-03  2.7000E-03  2.7000E-03  2.7000E-03  2.7000E-03  2.7000E-03  2.7000E-03  2.7000E-03
       2.7000E-03  2.7000E-03  2.7000E-03  2.7000E-03  2.7000E-03  2.7000E-03  9.0000E-03  9.0000E-03  2.7000E-02  9.0000E-03
       2.7000E-03  2.7000E-03   0.000       0.000       0.000       0.000       0.000       0.000       0.000    
  30    0.000       0.000       0.000       0.000       0.000       0.000       0.000       0.000       0.000       0.000    
        0.000       0.000       0.000       0.000       0.000       0.000       0.000       0.000       0.000      4.5000E-04
       4.5000E-04  4.5000E-04  4.5000E-04  4.5000E-04  4.5000E-04  4.5000E-04  4.5000E-04  9.0000E-04  9.0000E-04  9.0000E-04
       9.0000E-04  9.0000E-04  9.0000E-04  9.0000E-04  9.0000E-04  9.0000E-04  9.0000E-04  2.7000E-03  2.7000E-03  2.7000E-03
       2.7000E-03  2.7000E-03  2.7000E-03  2.7000E-03  2.7000E-03  2.7000E-03  2.7000E-03  2.7000E-03  2.7000E-03  2.7000E-03
       9.0000E-03  9.0000E-03  2.7000E-03  2.7000E-03  2.7000E-03  2.7000E-03  2.7000E-03  2.7000E-03  2.7000E-03  2.7000E-03
       2.7000E-03  2.7000E-03  2.7000E-03  2.7000E-03  2.7000E-03  2.7000E-03  9.0000E-03  9.0000E-03  2.7000E-02  9.0000E-03
       2.7000E-03  2.7000E-03   0.000       0.000       0.000       0.000       0.000       0.000       0.000    
  31    0.000       0.000       0.000       0.000       0.000       0.000       0.000       0.000       0.000       0.000    
        0.000       0.000       0.000       0.000       0.000       0.000       0.000       0.000      4.5000E-04  4.5000E-04
       4.5000E-04  4.5000E-04  4.5000E-04  9.0000E-04  9.0000E-04  9.0000E-04  9.0000E-04  9.0000E-04  9.0000E-04  9.0000E-04
       9.0000E-04  9.0000E-04  9.0000E-04  9.0000E-04  9.0000E-04  9.0000E-04  2.7000E-03  2.7000E-03  2.7000E-03  2.7000E-03
       2.7000E-03  2.7000E-03  2.7000E-03  9.0000E-03  2.7000E-03  2.7000E-03  2.7000E-03  2.7000E-03  2.7000E-03  2.7000E-03
       9.0000E-03  9.0000E-03  2.7000E-03  2.7000E-03  2.7000E-03  2.7000E-03  2.7000E-03  2.7000E-03  2.7000E-03  2.7000E-03
       2.7000E-03  2.7000E-03  2.7000E-03  2.7000E-03  2.7000E-03  2.7000E-03  9.0000E-03  9.0000E-03  2.7000E-02  2.7000E-02
       2.7000E-03  2.7000E-03   0.000       0.000       0.000       0.000       0.000       0.000       0.000    
  32    0.000       0.000       0.000       0.000       0.000       0.000       0.000       0.000       0.000       0.000    
        0.000       0.000       0.000       0.000       0.000       0.000      4.5000E-04  4.5000E-04  4.5000E-04  4.5000E-04
       4.5000E-04  4.5000E-04  9.0000E-04  9.0000E-04  9.0000E-04  9.0000E-04  9.0000E-04  9.0000E-04  9.0000E-04  9.0000E-04
       9.0000E-04  9.0000E-04  9.0000E-04  9.0000E-04  9.0000E-04  9.0000E-04  2.7000E-03  2.7000E-03  2.7000E-02  2.7000E-02
       2.7000E-02  2.7000E-02  2.7000E-02  2.7000E-02  2.7000E-03  2.7000E-03  2.7000E-03  2.7000E-03  2.7000E-03  2.7000E-03
       9.0000E-03  9.0000E-03  9.0000E-03  2.7000E-03  2.7000E-03  2.7000E-03  2.7000E-03  2.7000E-03  2.7000E-03  2.7000E-03
       2.7000E-03  2.7000E-03  2.7000E-03  2.7000E-03  2.7000E-03  2.7000E-03  2.7000E-03  9.0000E-03  9.0000E-03  2.7000E-02
       9.0000E-03  2.7000E-03   0.000       0.000       0.000       0.000       0.000       0.000       0.000    
  33    0.000       0.000       0.000       0.000       0.000       0.000       0.000       0.000       0.000       0.000    
        0.000       0.000       0.000       0.000       0.000      4.5000E-04  4.5000E-04  4.5000E-04  4.5000E-04  4.5000E-04
       4.5000E-04  4.5000E-04  9.0000E-04  9.0000E-04  9.0000E-04  9.0000E-04  9.0000E-04  9.0000E-04  9.0000E-04  9.0000E-04
       9.0000E-04  9.0000E-04  9.0000E-04  9.0000E-04  2.7000E-03  2.7000E-03  2.7000E-03  2.7000E-02  2.7000E-02  2.7000E-02
       2.7000E-02  2.7000E-02  2.7000E-02  2.7000E-02  2.7000E-02  2.7000E-03  2.7000E-03  2.7000E-03  2.7000E-03  2.7000E-03
       9.0000E-03  9.0000E-03  9.0000E-03  9.0000E-03  9.0000E-03  9.0000E-03  2.7000E-03  2.7000E-03  2.7000E-03  2.7000E-03
       2.7000E-03  2.7000E-03  2.7000E-03  2.7000E-03  2.7000E-03  2.7000E-03  2.7000E-03  9.0000E-03  9.0000E-03  2.7000E-02
       9.0000E-03  2.7000E-03  2.7000E-03   0.000       0.000       0.000       0.000       0.000       0.000    
  34    0.000       0.000       0.000       0.000       0.000       0.000       0.000       0.000       0.000       0.000    
        0.000       0.000       0.000       0.000      4.5000E-04  4.5000E-04  4.5000E-04  4.5000E-04  4.5000E-04  4.5000E-04
       4.5000E-04  4.5000E-04  9.0000E-04  9.0000E-04  9.0000E-04  9.0000E-04  9.0000E-04  9.0000E-03  9.0000E-04  9.0000E-04
       9.0000E-04  9.0000E-04  9.0000E-04  9.0000E-04  2.7000E-03  2.7000E-03  2.7000E-02  2.7000E-02  2.7000E-02  2.7000E-02
       2.7000E-02  9.0000E-03  9.0000E-03  2.7000E-02  2.7000E-02  2.7000E-02  2.7000E-02  2.7000E-02  2.7000E-02  9.0000E-03
       9.0000E-03  9.0000E-03  2.7000E-02  2.7000E-02  2.7000E-02  9.0000E-03  2.7000E-03  2.7000E-03  2.7000E-03  2.7000E-03
       2.7000E-03  2.7000E-03  2.7000E-03  2.7000E-03  2.7000E-03  2.7000E-03  2.7000E-03  9.0000E-03  9.0000E-03  9.0000E-03
       2.7000E-03  9.0000E-04  9.0000E-04   0.000       0.000       0.000       0.000       0.000       0.000    
  35    0.000       0.000       0.000       0.000       0.000       0.000       0.000       0.000       0.000       0.000    
        0.000       0.000       0.000      4.5000E-04  4.5000E-04  4.5000E-04  4.5000E-04  4.5000E-04  9.0000E-04  9.0000E-04
       9.0000E-04  9.0000E-04  9.0000E-04  9.0000E-04  9.0000E-03  9.0000E-03  9.0000E-03  9.0000E-03  9.0000E-03  9.0000E-03
       9.0000E-04  9.0000E-04  9.0000E-03  9.0000E-03  2.7000E-02  2.7000E-02  2.7000E-02  2.7000E-02  9.0000E-03  9.0000E-03
       9.0000E-03  9.0000E-03  9.0000E-03  9.0000E-03  2.7000E-02  2.7000E-02  2.7000E-02  2.7000E-02  2.7000E-02  2.7000E-02
       2.7000E-02  2.7000E-02  2.7000E-02  2.7000E-02  2.7000E-02  2.7000E-02  2.7000E-03  2.7000E-03  2.7000E-03  2.7000E-03
       2.7000E-03  2.7000E-03  2.7000E-03  2.7000E-03  2.7000E-03  2.7000E-03  2.7000E-03  9.0000E-03  9.0000E-03  2.7000E-03
       2.7000E-03  9.0000E-04  4.5000E-04  4.5000E-04   0.000       0.000       0.000       0.000       0.000    
  36    0.000       0.000       0.000       0.000       0.000       0.000       0.000       0.000       0.000       0.000    
        0.000       0.000       0.000      4.5000E-04  4.5000E-04  4.5000E-04  4.5000E-04  9.0000E-04  9.0000E-04  9.0000E-04
       9.0000E-04  9.0000E-04  9.0000E-04  9.0000E-04  9.0000E-03  9.0000E-03  9.0000E-03  9.0000E-03  2.7000E-02  2.7000E-02
       2.7000E-02  2.7000E-02  2.7000E-02  2.7000E-02  2.7000E-02  2.7000E-02  2.7000E-02  2.7000E-02  9.0000E-03  9.0000E-03
       9.0000E-03  9.0000E-03  9.0000E-03  9.0000E-03  2.7000E-02  2.7000E-02  2.7000E-02  2.7000E-02  2.7000E-02  2.7000E-02
       2.7000E-02  2.7000E-02  2.7000E-02  2.7000E-02  2.7000E-02  2.7000E-02  2.7000E-02  9.0000E-03  9.0000E-03  2.7000E-03
       2.7000E-03  2.7000E-03  9.0000E-03  9.0000E-03  2.7000E-03  2.7000E-03  2.7000E-03  9.0000E-03  9.0000E-03  2.7000E-03
       2.7000E-03  2.7000E-03  4.5000E-04  4.5000E-04  4.5000E-04   0.000       0.000       0.000       0.000    
  37    0.000       0.000       0.000       0.000       0.000       0.000       0.000       0.000       0.000       0.000    
        0.000       0.000      4.5000E-04  4.5000E-04  4.5000E-04  4.5000E-04  9.0000E-04  9.0000E-04  9.0000E-04  9.0000E-04
       9.0000E-04  9.0000E-04  9.0000E-04  9.0000E-03  2.7000E-02  2.7000E-02  2.7000E-02  2.7000E-02  2.7000E-02  2.7000E-02
       2.7000E-02  2.7000E-02  2.7000E-02  2.7000E-02  2.7000E-02  2.7000E-02  2.7000E-02  2.7000E-02  2.7000E-03  2.7000E-03
       2.7000E-03  2.7000E-03  9.0000E-03  2.7000E-02  2.7000E-02  2.7000E-02  2.7000E-02  2.7000E-02  2.7000E-02  2.7000E-02
       2.7000E-02  2.7000E-02  2.7000E-02  2.7000E-02  2.7000E-02  2.7000E-02  2.7000E-02  2.7000E-02  2.7000E-02  2.7000E-02
       2.7000E-02  2.7000E-02  9.0000E-03  9.0000E-03  9.0000E-03  9.0000E-03  9.0000E-03  9.0000E-03  9.0000E-03  9.0000E-03
       2.7000E-03  2.7000E-03  9.0000E-04  4.5000E-04  4.5000E-04   0.000       0.000       0.000       0.000    
  38    0.000       0.000       0.000       0.000       0.000       0.000       0.000       0.000       0.000       0.000    
       9.0000E-04  9.0000E-04  4.5000E-04  9.0000E-04  9.0000E-04  9.0000E-04  9.0000E-04  9.0000E-04  9.0000E-03  9.0000E-03
       9.0000E-03  9.0000E-03  9.0000E-03  9.0000E-03  9.0000E-03  2.7000E-02  2.7000E-02  2.7000E-02  9.0000E-03  9.0000E-03
       2.7000E-02  2.7000E-02  2.7000E-02  2.7000E-02  2.7000E-02  2.7000E-02  2.7000E-02  2.7000E-02  2.7000E-03  2.7000E-03
       2.7000E-03  2.7000E-03  9.0000E-03  2.7000E-02  2.7000E-02  2.7000E-02  2.7000E-03  9.0000E-03  9.0000E-03  9.0000E-03
       9.0000E-03  9.0000E-03  2.7000E-02  2.7000E-02  2.7000E-02  2.7000E-02  2.7000E-02  2.7000E-02  2.7000E-02  2.7000E-02
       2.7000E-02  2.7000E-02  2.7000E-02  2.7000E-02  2.7000E-02  2.7000E-02  2.7000E-02  2.7000E-02  2.7000E-02  9.0000E-03
       9.0000E-03  2.7000E-03  9.0000E-04  4.5000E-04  4.5000E-04  9.0000E-04   0.000       0.000       0.000    
  39    0.000       0.000       0.000       0.000       0.000       0.000       0.000      4.5000E-04  4.5000E-04  9.0000E-04
       9.0000E-04  9.0000E-04  9.0000E-04  9.0000E-04  9.0000E-03  9.0000E-03  9.0000E-03  9.0000E-03  9.0000E-03  9.0000E-03
       9.0000E-03  9.0000E-03  9.0000E-03  2.7000E-03  2.7000E-03  2.7000E-03  2.7000E-03  2.7000E-03  9.0000E-03  2.7000E-02
       2.7000E-02  2.7000E-02  2.7000E-02  2.7000E-02  2.7000E-02  2.7000E-02  2.7000E-02  2.7000E-02  2.7000E-03  2.7000E-03
       2.7000E-03  2.7000E-03  2.7000E-03  2.7000E-02  2.7000E-02  2.7000E-03  2.7000E-03  2.7000E-03  9.0000E-03  9.0000E-03
       9.0000E-03  9.0000E-03  9.0000E-03  9.0000E-03  9.0000E-03  9.0000E-03  9.0000E-03  9.0000E-03  9.0000E-03  2.7000E-02
       2.7000E-02  2.7000E-02  2.7000E-02  2.7000E-02  2.7000E-02  2.7000E-02  2.7000E-02  2.7000E-02  2.7000E-02  2.7000E-02
       2.7000E-02  2.7000E-02  9.0000E-03  9.0000E-04  9.0000E-04  8.1000E-02   0.000       0.000       0.000    
  40    0.000       0.000       0.000       0.000       0.000       0.000      4.5000E-04  4.5000E-04  4.5000E-04  9.0000E-04
       9.0000E-04  9.0000E-04  9.0000E-03  9.0000E-03  9.0000E-03  9.0000E-03  9.0000E-03  9.0000E-03  9.0000E-04  9.0000E-04
       9.0000E-04  9.0000E-04  2.7000E-03  2.7000E-03  2.7000E-03  2.7000E-03  2.7000E-03  2.7000E-03  2.7000E-02  2.7000E-02
       2.7000E-02  2.7000E-02  2.7000E-02  2.7000E-02  2.7000E-02  2.7000E-02  2.7000E-02  2.7000E-02  2.7000E-03  2.7000E-03
       2.7000E-03  2.7000E-03  2.7000E-03  2.7000E-02  2.7000E-02  2.7000E-03  2.7000E-03  2.7000E-03  2.7000E-03  9.0000E-03
       9.0000E-03  9.0000E-03  9.0000E-03  9.0000E-03  9.0000E-03  9.0000E-03  2.7000E-03  2.7000E-03  9.0000E-03  2.7000E-02
       2.7000E-02  9.0000E-03  9.0000E-03  9.0000E-03  9.0000E-03  2.7000E-02  2.7000E-02  2.7000E-02  2.7000E-02  2.7000E-02
       2.7000E-02  2.7000E-02  2.7000E-02  2.7000E-02  2.7000E-02  8.1000E-02   0.000       0.000       0.000    
  41    0.000       0.000       0.000       0.000       0.000      4.5000E-04  4.5000E-04  4.5000E-04  9.0000E-04  9.0000E-04
       9.0000E-04  9.0000E-04  9.0000E-03  9.0000E-03  9.0000E-04  9.0000E-04  9.0000E-04  9.0000E-04  9.0000E-04  9.0000E-04
       9.0000E-04  2.7000E-03  2.7000E-03  2.7000E-03  2.7000E-03  2.7000E-03  2.7000E-03  2.7000E-03  2.7000E-02  2.7000E-02
       9.0000E-03  9.0000E-03  9.0000E-03  2.7000E-02  2.7000E-02  2.7000E-02  2.7000E-02  2.7000E-02  2.7000E-03  2.7000E-03
       2.7000E-03  2.7000E-03  2.7000E-03  2.7000E-02  2.7000E-02  2.7000E-02  2.7000E-03  2.7000E-03  2.7000E-03  9.0000E-03
       9.0000E-03  9.0000E-03  9.0000E-04  9.0000E-04  9.0000E-04  9.0000E-04  2.7000E-03  2.7000E-03  2.7000E-03  2.7000E-02
       2.7000E-02  9.0000E-03  2.7000E-03  9.0000E-03  9.0000E-03  9.0000E-03  2.7000E-03  2.7000E-03  2.7000E-02  2.7000E-02
       2.7000E-02  2.7000E-02  2.7000E-02  2.7000E-02  2.7000E-02   0.000       0.000       0.000       0.000    
  42    0.000       0.000       0.000       0.000       0.000      4.5000E-04  4.5000E-04  4.5000E-04  9.0000E-04  9.0000E-04
       9.0000E-04  9.0000E-04  9.0000E-04  9.0000E-04  9.0000E-04  9.0000E-04  9.0000E-04  9.0000E-04  9.0000E-04  2.7000E-03
       2.7000E-03  2.7000E-03  2.7000E-03  2.7000E-02  2.7000E-02  2.7000E-02  2.7000E-02  2.7000E-02  2.7000E-02  9.0000E-03
       9.0000E-03  9.0000E-03  9.0000E-03  9.0000E-03  2.7000E-02  2.7000E-02  2.7000E-02  2.7000E-02  2.7000E-03  2.7000E-03
       2.7000E-03  2.7000E-03  2.7000E-03  9.0000E-03  2.7000E-02  2.7000E-02  2.7000E-03  2.7000E-03  2.7000E-03  2.7000E-03
       9.0000E-04  9.0000E-04  9.0000E-04  9.0000E-04  9.0000E-04  9.0000E-04  9.0000E-04  2.7000E-03  2.7000E-03  2.7000E-02
       2.7000E-02  9.0000E-03  2.7000E-03  2.7000E-03  2.7000E-03  2.7000E-03  2.7000E-03  2.7000E-03  2.7000E-03  9.0000E-03
       2.7000E-02  2.7000E-02  2.7000E-02  2.7000E-02  2.7000E-02   0.000       0.000       0.000       0.000    
  43    0.000       0.000       0.000       0.000       0.000      4.5000E-04  4.5000E-04  4.5000E-04  9.0000E-04  9.0000E-04
       9.0000E-04  9.0000E-04  9.0000E-04  9.0000E-04  9.0000E-04  9.0000E-04  9.0000E-04  9.0000E-04  9.0000E-04  2.7000E-03
       2.7000E-03  2.7000E-03  2.7000E-02  2.7000E-02  2.7000E-02  9.0000E-03  9.0000E-03  9.0000E-03  9.0000E-03  9.0000E-03
       9.0000E-03  9.0000E-03  9.0000E-03  9.0000E-03  2.7000E-02  2.7000E-02  2.7000E-02  2.7000E-03  2.7000E-03  2.7000E-03
       2.7000E-03  2.7000E-03  2.7000E-03  9.0000E-03  2.7000E-02  2.7000E-02  2.7000E-03  2.7000E-03  2.7000E-03  2.7000E-03
       9.0000E-04  9.0000E-04  9.0000E-04  9.0000E-04  9.0000E-04  9.0000E-04  9.0000E-04  2.7000E-03  2.7000E-03  2.7000E-02
       2.7000E-02  2.7000E-03  2.7000E-03  2.7000E-03  2.7000E-03  2.7000E-03  2.7000E-03  2.7000E-03  2.7000E-03  9.0000E-03
       2.7000E-02  2.7000E-02  2.7000E-02  2.7000E-02  9.0000E-03   0.000       0.000       0.000       0.000    
  44    0.000       0.000       0.000       0.000       0.000      4.5000E-04  4.5000E-04  4.5000E-04  4.5000E-04  9.0000E-04
       9.0000E-04  9.0000E-04  9.0000E-04  9.0000E-04  9.0000E-04  2.7000E-03  2.7000E-03  2.7000E-03  2.7000E-03  9.0000E-03
       9.0000E-03  2.7000E-02  2.7000E-02  9.0000E-03  9.0000E-03  9.0000E-03  9.0000E-03  9.0000E-03  9.0000E-03  9.0000E-03
       9.0000E-03  9.0000E-03  9.0000E-03  9.0000E-03  2.7000E-02  2.7000E-02  2.7000E-02  2.7000E-03  2.7000E-03  2.7000E-03
       2.7000E-03  2.7000E-03  9.0000E-04  9.0000E-04  2.7000E-02  2.7000E-02  2.7000E-03  2.7000E-03  2.7000E-03  2.7000E-03
       2.7000E-03  9.0000E-04  4.5000E-04  4.5000E-04  4.5000E-04  9.0000E-04  9.0000E-04  2.7000E-03  2.7000E-03  9.0000E-03
       2.7000E-02  2.7000E-03  2.7000E-03  2.7000E-03  2.7000E-03  2.7000E-03  2.7000E-03  2.7000E-03  2.7000E-03  9.0000E-03
       9.0000E-03  2.7000E-02  2.7000E-02  9.0000E-03  9.0000E-03   0.000       0.000       0.000       0.000    
  45    0.000       0.000       0.000      4.5000E-04  4.5000E-04  4.5000E-04  4.5000E-04  4.5000E-04  9.0000E-04  9.0000E-04
       9.0000E-04  9.0000E-04  9.0000E-04  9.0000E-04  9.0000E-03  9.0000E-03  9.0000E-03  9.0000E-03  9.0000E-03  2.7000E-02
       2.7000E-02  2.7000E-02  9.0000E-03  9.0000E-03  9.0000E-03  9.0000E-03  9.0000E-03  9.0000E-03  9.0000E-03  9.0000E-03
       9.0000E-03  9.0000E-03  9.0000E-03  9.0000E-03  2.7000E-02  2.7000E-02  2.7000E-02  9.0000E-03  9.0000E-04  9.0000E-04
       9.0000E-04  9.0000E-04  9.0000E-04  9.0000E-04  2.7000E-02  2.7000E-02  2.7000E-03  2.7000E-03  4.5000E-04  4.5000E-04
       4.5000E-04  4.5000E-04  4.5000E-04  4.5000E-04  4.5000E-04  9.0000E-04  9.0000E-04  2.7000E-03  2.7000E-03  9.0000E-03
       2.7000E-02  2.7000E-03  2.7000E-03  2.7000E-03  2.7000E-03  2.7000E-03  2.7000E-03  2.7000E-03  2.7000E-03  9.0000E-03
       9.0000E-03  2.7000E-02  2.7000E-02  2.7000E-03  9.0000E-04   0.000       0.000       0.000       0.000    
  46    0.000       0.000       0.000      4.5000E-04  4.5000E-04  4.5000E-04  4.5000E-04  4.5000E-04  9.0000E-04  9.0000E-04
       9.0000E-04  9.0000E-03  9.0000E-03  9.0000E-03  9.0000E-03  9.0000E-03  2.7000E-02  2.7000E-02  2.7000E-02  2.7000E-02
       2.7000E-02  9.0000E-03  9.0000E-03  9.0000E-03  9.0000E-03  9.0000E-03  9.0000E-03  9.0000E-03  9.0000E-03  9.0000E-03
       9.0000E-03  9.0000E-03  9.0000E-03  9.0000E-03  2.7000E-02  2.7000E-02  2.7000E-02  2.7000E-03  9.0000E-04  9.0000E-04
       9.0000E-04  9.0000E-04  9.0000E-04  9.0000E-04  2.7000E-02  2.7000E-02  2.7000E-03  2.7000E-03  4.5000E-04  4.5000E-04
       4.5000E-04  4.5000E-04  4.5000E-04  4.5000E-04  4.5000E-04  9.0000E-04  9.0000E-04  2.7000E-03  2.7000E-03  9.0000E-03
       9.0000E-03  2.7000E-03  2.7000E-03  2.7000E-03  2.7000E-03  2.7000E-03  2.7000E-03  2.7000E-03  2.7000E-03  9.0000E-03
       9.0000E-03  2.7000E-02  9.0000E-03  2.7000E-03  2.7000E-03   0.000       0.000       0.000       0.000    
  47    0.000       0.000       0.000      4.5000E-04  4.5000E-04  4.5000E-04  4.5000E-04  9.0000E-04  9.0000E-04  9.0000E-04
       9.0000E-04  9.0000E-03  9.0000E-03  9.0000E-03  2.7000E-02  2.7000E-02  2.7000E-02  9.0000E-03  9.0000E-03  9.0000E-03
       9.0000E-03  9.0000E-03  9.0000E-03  9.0000E-03  9.0000E-03  9.0000E-03  9.0000E-03  9.0000E-03  9.0000E-03  2.7000E-03
       9.0000E-03  9.0000E-03  9.0000E-03  9.0000E-03  2.7000E-02  2.7000E-02  2.7000E-02  2.7000E-03  9.0000E-04  9.0000E-04
       9.0000E-04  9.0000E-04  9.0000E-04  9.0000E-04  2.7000E-02  2.7000E-02  2.7000E-03  2.7000E-03  4.5000E-04  4.5000E-04
       4.5000E-04  4.5000E-04  4.5000E-04  4.5000E-04  4.5000E-04  9.0000E-04  9.0000E-04  9.0000E-04  2.7000E-03  2.7000E-03
       9.0000E-03  2.7000E-03  2.7000E-03  2.7000E-03  2.7000E-03  2.7000E-03  2.7000E-03  2.7000E-03  2.7000E-03  9.0000E-03
       9.0000E-03  2.7000E-02  9.0000E-03  2.7000E-03  2.7000E-03   0.000       0.000       0.000       0.000    
  48    0.000       0.000       0.000      4.5000E-04  4.5000E-04  4.5000E-04  4.5000E-04  9.0000E-04  9.0000E-04  9.0000E-04
       9.0000E-04  9.0000E-03  2.7000E-02  2.7000E-02  2.7000E-02  9.0000E-03  9.0000E-03  9.0000E-03  9.0000E-03  9.0000E-03
       9.0000E-03  9.0000E-03  9.0000E-03  9.0000E-03  2.7000E-03  2.7000E-03  2.7000E-03  2.7000E-03  2.7000E-03  2.7000E-03
       9.0000E-03  9.0000E-03  9.0000E-03  9.0000E-03  2.7000E-02  2.7000E-02  2.7000E-02  2.7000E-02  9.0000E-04  9.0000E-04
       9.0000E-04  9.0000E-04  9.0000E-04  9.0000E-04  2.7000E-02  2.7000E-02  2.7000E-03  2.7000E-03  2.7000E-03  4.5000E-04
       4.5000E-04  4.5000E-04  4.5000E-04  4.5000E-04  4.5000E-04  4.5000E-04  9.0000E-04  9.0000E-04  2.7000E-03  2.7000E-03
       9.0000E-03  9.0000E-03  2.7000E-03  2.7000E-03  2.7000E-03  2.7000E-03  2.7000E-03  2.7000E-03  2.7000E-03  9.0000E-03
       2.7000E-02  2.7000E-02  9.0000E-03  2.7000E-03  2.7000E-03  2.7000E-03   0.000       0.000       0.000    
  49    0.000       0.000       0.000      4.5000E-04  4.5000E-04  4.5000E-04  4.5000E-04  9.0000E-04  9.0000E-04  9.0000E-04
       9.0000E-03  2.7000E-02  2.7000E-02  9.0000E-03  9.0000E-03  9.0000E-03  9.0000E-03  9.0000E-03  9.0000E-03  2.7000E-03
       2.7000E-03  2.7000E-03  2.7000E-03  2.7000E-03  2.7000E-03  2.7000E-03  2.7000E-03  2.7000E-03  2.7000E-03  2.7000E-03
       9.0000E-03  9.0000E-03  9.0000E-03  9.0000E-03  2.7000E-02  2.7000E-02  2.7000E-02  2.7000E-02  2.7000E-02  9.0000E-04
       9.0000E-04  9.0000E-04  9.0000E-04  9.0000E-04  9.0000E-04  2.7000E-02  2.7000E-02  9.0000E-03  2.7000E-03  4.5000E-04
       4.5000E-04  4.5000E-04  4.5000E-04  4.5000E-04  4.5000E-04  4.5000E-04  9.0000E-04  9.0000E-04  2.7000E-03  2.7000E-03
       9.0000E-03  9.0000E-03  2.7000E-03  2.7000E-03  2.7000E-03  2.7000E-03  2.7000E-03  2.7000E-03  2.7000E-03  9.0000E-03
       2.7000E-02  2.7000E-02  9.0000E-03  2.7000E-03  2.7000E-03  2.7000E-03   0.000       0.000       0.000    
  50    0.000       0.000       0.000      4.5000E-04  4.5000E-04  4.5000E-04  9.0000E-04  9.0000E-04  9.0000E-04  9.0000E-04
       2.7000E-02  2.7000E-02  2.7000E-02  2.7000E-02  9.0000E-03  2.7000E-03  2.7000E-03  2.7000E-03  2.7000E-03  2.7000E-03
       2.7000E-03  2.7000E-03  2.7000E-03  2.7000E-03  2.7000E-03  2.7000E-03  2.7000E-03  2.7000E-03  2.7000E-03  2.7000E-03
       2.7000E-03  9.0000E-03  9.0000E-03  9.0000E-03  9.0000E-03  2.7000E-02  2.7000E-02  2.7000E-02  2.7000E-02  2.7000E-02
       9.0000E-04  9.0000E-04  9.0000E-04  9.0000E-04  9.0000E-04  9.0000E-04  2.7000E-02  2.7000E-02  9.0000E-03  4.5000E-04
       4.5000E-04  4.5000E-04  4.5000E-04  4.5000E-04  4.5000E-04  4.5000E-04  9.0000E-04  9.0000E-04  2.7000E-03  2.7000E-03
       9.0000E-03  9.0000E-03  2.7000E-03  2.7000E-03  2.7000E-03  2.7000E-03  2.7000E-03  2.7000E-03  2.7000E-03  9.0000E-03
       2.7000E-02  2.7000E-02  9.0000E-03  9.0000E-03  2.7000E-03  2.7000E-03   0.000       0.000       0.000    
  51    0.000       0.000       0.000      4.5000E-04  4.5000E-04  9.0000E-04  9.0000E-04  9.0000E-04  9.0000E-04  2.7000E-02
       2.7000E-02  2.7000E-02  2.7000E-02  9.0000E-03  9.0000E-03  9.0000E-04  9.0000E-04  2.7000E-03  2.7000E-03  2.7000E-03
       2.7000E-03  2.7000E-03  2.7000E-03  2.7000E-03  2.7000E-03  2.7000E-03  2.7000E-03  2.7000E-03  2.7000E-03  2.7000E-03
       2.7000E-03  9.0000E-03  9.0000E-03  9.0000E-03  9.0000E-03  2.7000E-02  2.7000E-02  2.7000E-02  2.7000E-02  2.7000E-02
       9.0000E-04  9.0000E-04  9.0000E-04  9.0000E-04  9.0000E-04  9.0000E-04  2.7000E-02  2.7000E-02  2.7000E-02  4.5000E-04
       4.5000E-04  4.5000E-04  4.5000E-04  4.5000E-04  4.5000E-04  4.5000E-04  9.0000E-04  9.0000E-04  2.7000E-03  2.7000E-03
       9.0000E-03  9.0000E-03  9.0000E-03  2.7000E-03  2.7000E-03  2.7000E-03  2.7000E-03  2.7000E-03  2.7000E-03  9.0000E-03
       2.7000E-02  2.7000E-02  9.0000E-03  9.0000E-03  2.7000E-03  2.7000E-03   0.000       0.000       0.000    
  52    0.000       0.000      4.5000E-04  4.5000E-04  4.5000E-04  9.0000E-04  9.0000E-04  9.0000E-04  9.0000E-04  2.7000E-02
       2.7000E-02  2.7000E-02  9.0000E-03  9.0000E-04  9.0000E-04  9.0000E-04  9.0000E-04  9.0000E-04  9.0000E-04  2.7000E-03
       2.7000E-03  2.7000E-03  2.7000E-03  2.7000E-03  2.7000E-03  2.7000E-03  2.7000E-03  2.7000E-03  2.7000E-03  2.7000E-03
       2.7000E-03  9.0000E-03  9.0000E-03  9.0000E-03  9.0000E-03  2.7000E-02  2.7000E-02  2.7000E-02  2.7000E-02  2.7000E-02
       9.0000E-04  9.0000E-04  9.0000E-04  9.0000E-04  9.0000E-04  9.0000E-04  9.0000E-04  2.7000E-02  2.7000E-02  4.5000E-04
       4.5000E-04  4.5000E-04  4.5000E-04  4.5000E-04  4.5000E-04  4.5000E-04  9.0000E-04  9.0000E-04  9.0000E-04  2.7000E-03
       9.0000E-03  9.0000E-03  9.0000E-03  2.7000E-03  2.7000E-03  2.7000E-03  2.7000E-03  2.7000E-03  2.7000E-03  9.0000E-03
       2.7000E-02  2.7000E-02  2.7000E-02  9.0000E-03  2.7000E-03  2.7000E-03   0.000       0.000       0.000    
  53    0.000       0.000      4.5000E-04  4.5000E-04  4.5000E-04  9.0000E-04  9.0000E-04  9.0000E-04  2.7000E-02  2.7000E-02
       2.7000E-02  9.0000E-03  9.0000E-04  9.0000E-04  9.0000E-04  9.0000E-04  9.0000E-04  9.0000E-04  9.0000E-04  9.0000E-04
       9.0000E-04  2.7000E-03  2.7000E-03  2.7000E-03  2.7000E-03  2.7000E-03  2.7000E-03  2.7000E-03  2.7000E-03  2.7000E-03
       2.7000E-03  9.0000E-03  9.0000E-03  9.0000E-03  9.0000E-03  2.7000E-02  2.7000E-02  2.7000E-02  2.7000E-02  9.0000E-04
       9.0000E-04  9.0000E-04  9.0000E-04  9.0000E-04  9.0000E-04  9.0000E-04  9.0000E-04  2.7000E-02  9.0000E-03  2.7000E-02
       4.5000E-04  4.5000E-04  4.5000E-04  4.5000E-04  4.5000E-04  4.5000E-04  4.5000E-04  9.0000E-04  9.0000E-04  2.7000E-03
       9.0000E-03  9.0000E-03  9.0000E-03  2.7000E-03  2.7000E-03  2.7000E-03  2.7000E-03  2.7000E-03  2.7000E-03  9.0000E-03
       9.0000E-03  2.7000E-02  2.7000E-02  9.0000E-03  2.7000E-03  2.7000E-03  2.7000E-03   0.000       0.000    
  54    0.000       0.000      4.5000E-04  4.5000E-04  4.5000E-04  9.0000E-04  9.0000E-04  9.0000E-04  2.7000E-02  2.7000E-02
       2.7000E-02  9.0000E-04  9.0000E-04  9.0000E-04  9.0000E-04  9.0000E-04  9.0000E-04  9.0000E-04  9.0000E-04  9.0000E-04
       9.0000E-04  2.7000E-03  2.7000E-03  2.7000E-03  2.7000E-03  2.7000E-03  2.7000E-03  2.7000E-03  2.7000E-03  2.7000E-03
       2.7000E-03  9.0000E-03  9.0000E-03  9.0000E-03  9.0000E-03  2.7000E-02  2.7000E-02  2.7000E-02  2.7000E-02  2.7000E-03
       9.0000E-04  9.0000E-04  9.0000E-04  4.5000E-04  4.5000E-04  4.5000E-04  9.0000E-04  9.0000E-03  9.0000E-03  9.0000E-03
       4.5000E-04  4.5000E-04  4.5000E-04  4.5000E-04  4.5000E-04  4.5000E-04  4.5000E-04  9.0000E-04  9.0000E-04  2.7000E-03
       9.0000E-03  9.0000E-03  9.0000E-03  2.7000E-03  2.7000E-03  2.7000E-03  2.7000E-03  2.7000E-03  2.7000E-03  9.0000E-03
       9.0000E-03  9.0000E-03  9.0000E-03  9.0000E-03  2.7000E-03  2.7000E-03  2.7000E-03   0.000       0.000    
  55    0.000      4.5000E-04  4.5000E-04  4.5000E-04  9.0000E-04  9.0000E-04  9.0000E-04  9.0000E-03  9.0000E-03  9.0000E-03
       9.0000E-03  9.0000E-04  9.0000E-04  9.0000E-04  9.0000E-04  9.0000E-04  9.0000E-04  9.0000E-04  9.0000E-04  9.0000E-04
       9.0000E-04  9.0000E-04  2.7000E-03  2.7000E-03  2.7000E-03  2.7000E-03  2.7000E-03  2.7000E-03  2.7000E-03  2.7000E-03
       2.7000E-03  2.7000E-03  9.0000E-03  9.0000E-03  9.0000E-03  2.7000E-02  2.7000E-02  2.7000E-02  2.7000E-02  2.7000E-03
       9.0000E-04  4.5000E-04  4.5000E-04  4.5000E-04  4.5000E-04  4.5000E-04  9.0000E-04  9.0000E-03  9.0000E-03  9.0000E-03
       4.5000E-04  4.5000E-04  4.5000E-04  4.5000E-04  4.5000E-04  4.5000E-04  4.5000E-04  9.0000E-04  9.0000E-04  2.7000E-03
       9.0000E-03  9.0000E-03  9.0000E-03  2.7000E-03  2.7000E-03  2.7000E-03  2.7000E-03  2.7000E-03  2.7000E-03  9.0000E-03
       9.0000E-03  9.0000E-03  9.0000E-03  9.0000E-03  9.0000E-03  2.7000E-03  2.7000E-03   0.000       0.000    
  56    0.000      4.5000E-04  4.5000E-04  9.0000E-04  9.0000E-04  9.0000E-04  9.0000E-03  9.0000E-03  9.0000E-03  9.0000E-03
       9.0000E-03  9.0000E-04  9.0000E-04  9.0000E-04  9.0000E-04  9.0000E-04  9.0000E-04  9.0000E-04  9.0000E-04  9.0000E-04
       9.0000E-04  9.0000E-04  9.0000E-04  2.7000E-03  2.7000E-03  2.7000E-03  2.7000E-03  2.7000E-03  2.7000E-03  2.7000E-03
       2.7000E-03  2.7000E-03  9.0000E-03  9.0000E-03  9.0000E-03  2.7000E-02  2.7000E-02  2.7000E-02  2.7000E-02  2.7000E-03
       9.0000E-04  4.5000E-04  4.5000E-04  4.5000E-04  4.5000E-04  4.5000E-04  9.0000E-04  9.0000E-03  9.0000E-03  9.0000E-03
       4.5000E-04  4.5000E-04  4.5000E-04  4.5000E-04  4.5000E-04  4.5000E-04  4.5000E-04  9.0000E-04  9.0000E-04  2.7000E-03
       9.0000E-03  9.0000E-03  9.0000E-03  2.7000E-03  2.7000E-03  9.0000E-04  9.0000E-04  9.0000E-04  2.7000E-03  2.7000E-03
       9.0000E-03  9.0000E-03  9.0000E-03  9.0000E-03  9.0000E-03  2.7000E-03  2.7000E-03   0.000       0.000    
  57   4.5000E-04  4.5000E-04  9.0000E-04  9.0000E-04  9.0000E-04  9.0000E-03  9.0000E-03  9.0000E-03  9.0000E-03  9.0000E-04
       9.0000E-04  9.0000E-04  9.0000E-04  9.0000E-04  9.0000E-04  9.0000E-04  9.0000E-04  9.0000E-04  9.0000E-04  9.0000E-04
       9.0000E-04  9.0000E-04  9.0000E-04  9.0000E-04  9.0000E-04  9.0000E-04  2.7000E-03  2.7000E-03  2.7000E-03  2.7000E-03
       2.7000E-03  2.7000E-03  9.0000E-03  9.0000E-03  9.0000E-03  2.7000E-02  2.7000E-02  2.7000E-02  2.7000E-03  2.7000E-03
       9.0000E-04  4.5000E-04  4.5000E-04  4.5000E-04  4.5000E-04  4.5000E-04  9.0000E-04  9.0000E-03  9.0000E-03  9.0000E-03
       4.5000E-04  4.5000E-04  4.5000E-04  4.5000E-04  4.5000E-04  4.5000E-04  4.5000E-04  9.0000E-04  9.0000E-04  9.0000E-04
       2.7000E-03  9.0000E-03  9.0000E-03  2.7000E-03  2.7000E-03  9.0000E-04  9.0000E-04  9.0000E-04  2.7000E-03  2.7000E-03
       9.0000E-03  9.0000E-03  2.7000E-03  2.7000E-03  2.7000E-03  2.7000E-03  2.7000E-03   0.000       0.000    
  58   4.5000E-04  4.5000E-04  9.0000E-04  9.0000E-04  9.0000E-04  9.0000E-03  9.0000E-04  9.0000E-04  9.0000E-04  9.0000E-04
       9.0000E-04  9.0000E-04  9.0000E-04  9.0000E-04  9.0000E-04  9.0000E-04  4.5000E-04  9.0000E-04  9.0000E-04  9.0000E-04
       9.0000E-04  9.0000E-04  9.0000E-04  9.0000E-04  9.0000E-04  9.0000E-04  9.0000E-04  2.7000E-03  2.7000E-03  2.7000E-03
       2.7000E-03  2.7000E-03  9.0000E-03  9.0000E-03  9.0000E-03  2.7000E-02  2.7000E-02  2.7000E-02  2.7000E-03  2.7000E-03
       9.0000E-04  4.5000E-04  4.5000E-04  4.5000E-04  4.5000E-04  4.5000E-04  4.5000E-04  9.0000E-04  9.0000E-03  9.0000E-03
       9.0000E-03  2.7000E-03  9.0000E-04  4.5000E-04  4.5000E-04  4.5000E-04  4.5000E-04  9.0000E-04  9.0000E-04  9.0000E-04
       2.7000E-03  9.0000E-03  2.7000E-03  2.7000E-03  2.7000E-03  9.0000E-04  9.0000E-04  9.0000E-04  2.7000E-03  9.0000E-03
       9.0000E-03  9.0000E-03  2.7000E-03  2.7000E-03  2.7000E-03  2.7000E-03  2.7000E-03   0.000       0.000    
  59   4.5000E-04  4.5000E-04  9.0000E-04  9.0000E-04  9.0000E-04  9.0000E-04  9.0000E-04  9.0000E-04  9.0000E-04  9.0000E-04
       9.0000E-04  4.5000E-04  4.5000E-04  4.5000E-04  4.5000E-04  4.5000E-04  4.5000E-04  9.0000E-04  9.0000E-04  9.0000E-04
       9.0000E-04  9.0000E-04  9.0000E-04  9.0000E-04  9.0000E-04  9.0000E-04  9.0000E-04  9.0000E-04  2.7000E-03  2.7000E-03
       2.7000E-03  2.7000E-03  9.0000E-03  9.0000E-03  9.0000E-03  9.0000E-03  2.7000E-02  2.7000E-02  2.7000E-02  2.7000E-03
       9.0000E-04  9.0000E-04  4.5000E-04  4.5000E-04  4.5000E-04  4.5000E-04  4.5000E-04  9.0000E-04  9.0000E-03  9.0000E-04
       9.0000E-03  2.7000E-03  9.0000E-04  4.5000E-04  4.5000E-04  4.5000E-04  4.5000E-04  9.0000E-04  9.0000E-04  9.0000E-04
       2.7000E-03  2.7000E-03  2.7000E-03  9.0000E-04  9.0000E-04  9.0000E-04  9.0000E-04  9.0000E-04  2.7000E-03  9.0000E-03
       9.0000E-03  9.0000E-03  2.7000E-03  2.7000E-03  2.7000E-03  2.7000E-03  2.7000E-03  2.7000E-03   0.000    
  60    0.000      4.5000E-04  4.5000E-04  9.0000E-04  9.0000E-04  9.0000E-04  4.5000E-04  4.5000E-04  4.5000E-04  4.5000E-04
       4.5000E-04  4.5000E-04  4.5000E-04   0.000       0.000       0.000      4.5000E-04  4.5000E-04  9.0000E-04  9.0000E-04
       9.0000E-04  9.0000E-04  9.0000E-04  9.0000E-04  9.0000E-04  9.0000E-04  9.0000E-04  9.0000E-04  9.0000E-04  2.7000E-03
       2.7000E-03  2.7000E-03  2.7000E-03  9.0000E-03  9.0000E-03  9.0000E-03  2.7000E-02  2.7000E-02  2.7000E-02  2.7000E-03
       9.0000E-04  9.0000E-04  4.5000E-04  4.5000E-04  4.5000E-04  4.5000E-04  4.5000E-04  9.0000E-04  9.0000E-04  9.0000E-04
       9.0000E-03  2.7000E-03  9.0000E-04  4.5000E-04  9.0000E-04  9.0000E-04  9.0000E-04  9.0000E-04  9.0000E-04  2.7000E-03
       2.7000E-03  2.7000E-03  9.0000E-04  9.0000E-04  9.0000E-04  9.0000E-04  9.0000E-04  9.0000E-04  2.7000E-03  9.0000E-03
       9.0000E-03  2.7000E-03  2.7000E-03  2.7000E-03  2.7000E-03  2.7000E-03  2.7000E-03  2.7000E-03  2.7000E-03
  61    0.000       0.000      4.5000E-04  4.5000E-04  4.5000E-04  4.5000E-04  4.5000E-04  4.5000E-04  4.5000E-04  4.5000E-04
       4.5000E-04   0.000       0.000       0.000       0.000       0.000       0.000      4.5000E-04  4.5000E-04  9.0000E-04
       9.0000E-04  9.0000E-04  9.0000E-04  9.0000E-04  9.0000E-04  9.0000E-04  9.0000E-04  9.0000E-04  9.0000E-04  9.0000E-04
       2.7000E-03  2.7000E-03  2.7000E-03  9.0000E-03  9.0000E-03  9.0000E-03  2.7000E-02  2.7000E-02  2.7000E-02  2.7000E-03
       9.0000E-04  9.0000E-04  4.5000E-04  4.5000E-04  4.5000E-04  4.5000E-04  4.5000E-04  4.5000E-04  9.0000E-04  9.0000E-04
       9.0000E-03  9.0000E-03  9.0000E-04  9.0000E-04  9.0000E-04  9.0000E-04  9.0000E-04  9.0000E-04  9.0000E-04  9.0000E-04
       9.0000E-04  9.0000E-04  9.0000E-04  9.0000E-04  9.0000E-04  9.0000E-04  9.0000E-04  9.0000E-04  2.7000E-03  9.0000E-03
       9.0000E-03  2.7000E-03  2.7000E-03  2.7000E-03  2.7000E-03  2.7000E-03  2.7000E-03  2.7000E-03  2.7000E-03
  62    0.000       0.000       0.000      4.5000E-04   0.000       0.000       0.000       0.000       0.000       0.000    
        0.000       0.000       0.000       0.000       0.000       0.000       0.000       0.000       0.000      4.5000E-04
       9.0000E-04  9.0000E-04  9.0000E-04  9.0000E-04  9.0000E-04  9.0000E-04  9.0000E-04  9.0000E-04  9.0000E-04  9.0000E-04
       2.7000E-03  2.7000E-03  2.7000E-03  9.0000E-03  9.0000E-03  9.0000E-03  2.7000E-02  2.7000E-02  9.0000E-03  2.7000E-03
       9.0000E-04  9.0000E-04  4.5000E-04  4.5000E-04  4.5000E-04  4.5000E-04  4.5000E-04  4.5000E-04  9.0000E-04  9.0000E-04
       9.0000E-04  9.0000E-04  9.0000E-03  9.0000E-04  9.0000E-04  9.0000E-04  9.0000E-04  9.0000E-04  9.0000E-04  9.0000E-04
       9.0000E-04  9.0000E-04  9.0000E-04  9.0000E-04  9.0000E-04  9.0000E-04  9.0000E-04  9.0000E-04  2.7000E-03  9.0000E-03
       2.7000E-03  2.7000E-03  2.7000E-03  2.7000E-03  2.7000E-03  2.7000E-03  2.7000E-03  9.0000E-04  9.0000E-04
  63    0.000       0.000       0.000       0.000       0.000       0.000       0.000       0.000       0.000       0.000    
        0.000       0.000       0.000       0.000       0.000       0.000       0.000       0.000       0.000      4.5000E-04
       4.5000E-04  4.5000E-04  9.0000E-04  9.0000E-04  9.0000E-04  9.0000E-04  9.0000E-04  9.0000E-04  9.0000E-04  9.0000E-04
       9.0000E-04  2.7000E-03  2.7000E-03  9.0000E-03  9.0000E-03  9.0000E-03  2.7000E-02  2.7000E-02  9.0000E-03  2.7000E-03
       2.7000E-03  9.0000E-04  9.0000E-04  4.5000E-04  4.5000E-04  4.5000E-04  4.5000E-04  4.5000E-04  4.5000E-04  4.5000E-04
       9.0000E-04  9.0000E-04  9.0000E-03  9.0000E-03  9.0000E-04  9.0000E-04  9.0000E-04  9.0000E-04  9.0000E-04  9.0000E-04
       9.0000E-04  9.0000E-04  9.0000E-04  9.0000E-04  9.0000E-04  9.0000E-04  9.0000E-04  9.0000E-04  2.7000E-03  2.7000E-03
       2.7000E-03  2.7000E-03  2.7000E-03  2.7000E-03  2.7000E-03  2.7000E-03  2.7000E-03  9.0000E-04  9.0000E-04
  64    0.000       0.000       0.000       0.000       0.000       0.000       0.000       0.000       0.000       0.000    
        0.000       0.000       0.000       0.000       0.000       0.000       0.000       0.000       0.000       0.000    
        0.000       0.000       0.000       0.000      9.0000E-04  9.0000E-04  9.0000E-04  9.0000E-04  9.0000E-04  9.0000E-04
       9.0000E-04  9.0000E-04  2.7000E-03  2.7000E-03  9.0000E-03  9.0000E-03  9.0000E-03  2.7000E-02  2.7000E-02  9.0000E-03
       9.0000E-04  9.0000E-04  9.0000E-04  4.5000E-04  4.5000E-04  4.5000E-04  4.5000E-04  4.5000E-04  4.5000E-04  4.5000E-04
       9.0000E-04  9.0000E-04  2.7000E-03  9.0000E-03  9.0000E-04  9.0000E-04  9.0000E-04  9.0000E-04  9.0000E-04  9.0000E-04
       9.0000E-04  9.0000E-04  9.0000E-04  9.0000E-04  9.0000E-04  9.0000E-04  9.0000E-04  2.7000E-03  2.7000E-03  2.7000E-03
       2.7000E-03  2.7000E-03  2.7000E-03  2.7000E-03  2.7000E-03  2.7000E-03  9.0000E-04  9.0000E-04  9.0000E-04
  65    0.000       0.000       0.000       0.000       0.000       0.000       0.000       0.000       0.000       0.000    
        0.000       0.000       0.000       0.000       0.000       0.000       0.000       0.000       0.000       0.000    
        0.000       0.000       0.000       0.000       0.000       0.000       0.000       0.000       0.000       0.000    
        0.000       0.000       0.000      2.7000E-03  9.0000E-03  9.0000E-03  9.0000E-03  9.0000E-03  9.0000E-03  9.0000E-03
       9.0000E-04  9.0000E-04  9.0000E-04  4.5000E-04  4.5000E-04   0.000       0.000       0.000       0.000      4.5000E-04
       4.5000E-04  9.0000E-04  2.7000E-03  2.7000E-03  9.0000E-04  9.0000E-04  9.0000E-04  9.0000E-04  9.0000E-04  9.0000E-04
       9.0000E-04  9.0000E-04  9.0000E-04  9.0000E-04  9.0000E-04  9.0000E-04  9.0000E-04  2.7000E-03  2.7000E-03  2.7000E-03
       2.7000E-03  2.7000E-03  2.7000E-03  2.7000E-03  2.7000E-03  2.7000E-03  2.7000E-03  9.0000E-04  9.0000E-04
  66    0.000       0.000       0.000       0.000       0.000       0.000       0.000       0.000       0.000       0.000    
        0.000       0.000       0.000       0.000       0.000       0.000       0.000       0.000       0.000       0.000    
        0.000       0.000       0.000       0.000       0.000       0.000       0.000       0.000       0.000       0.000    
        0.000       0.000       0.000       0.000       0.000      2.7000E-03  2.7000E-03   0.000       0.000       0.000    
        0.000       0.000       0.000       0.000       0.000       0.000       0.000       0.000       0.000       0.000    
       4.5000E-04  9.0000E-04  2.7000E-03  2.7000E-03  2.7000E-03  9.0000E-04  9.0000E-04  9.0000E-04  9.0000E-04  9.0000E-04
       9.0000E-04  9.0000E-04  9.0000E-04  9.0000E-04  9.0000E-04  9.0000E-04  9.0000E-04  9.0000E-04  2.7000E-03  2.7000E-03
       2.7000E-03  2.7000E-03  2.7000E-03  2.7000E-03  2.7000E-03  2.7000E-03  2.7000E-03  9.0000E-04  9.0000E-04
  67    0.000       0.000       0.000       0.000       0.000       0.000       0.000       0.000       0.000       0.000    
        0.000       0.000       0.000       0.000       0.000       0.000       0.000       0.000       0.000       0.000    
        0.000       0.000       0.000       0.000       0.000       0.000       0.000       0.000       0.000       0.000    
        0.000       0.000       0.000       0.000       0.000       0.000       0.000       0.000       0.000       0.000    
        0.000       0.000       0.000       0.000       0.000       0.000       0.000       0.000       0.000       0.000    
        0.000       0.000      4.5000E-04  2.7000E-03  9.0000E-04  9.0000E-04  9.0000E-04  9.0000E-04  9.0000E-04  4.5000E-04
       4.5000E-04  4.5000E-04  4.5000E-04  4.5000E-04  9.0000E-04  9.0000E-04  9.0000E-04  9.0000E-04  2.7000E-03  2.7000E-03
       2.7000E-03   0.000       0.000       0.000       0.000       0.000       0.000       0.000       0.000    
  68    0.000       0.000       0.000       0.000       0.000       0.000       0.000       0.000       0.000       0.000    
        0.000       0.000       0.000       0.000       0.000       0.000       0.000       0.000       0.000       0.000    
        0.000       0.000       0.000       0.000       0.000       0.000       0.000       0.000       0.000       0.000    
        0.000       0.000       0.000       0.000       0.000       0.000       0.000       0.000       0.000       0.000    
        0.000       0.000       0.000       0.000       0.000       0.000       0.000       0.000       0.000       0.000    
        0.000       0.000       0.000      4.5000E-04  9.0000E-04  9.0000E-04  9.0000E-04  4.5000E-04  4.5000E-04  4.5000E-04
       4.5000E-04  4.5000E-04  4.5000E-04  4.5000E-04  9.0000E-04  9.0000E-04  9.0000E-04  2.7000E-03   0.000       0.000    
        0.000       0.000       0.000       0.000       0.000       0.000       0.000       0.000       0.000    
  69    0.000       0.000       0.000       0.000       0.000       0.000       0.000       0.000       0.000       0.000    
        0.000       0.000       0.000       0.000       0.000       0.000       0.000       0.000       0.000       0.000    
        0.000       0.000       0.000       0.000       0.000       0.000       0.000       0.000       0.000       0.000    
        0.000       0.000       0.000       0.000       0.000       0.000       0.000       0.000       0.000       0.000    
        0.000       0.000       0.000       0.000       0.000       0.000       0.000       0.000       0.000       0.000    
        0.000       0.000       0.000       0.000       0.000       0.000       0.000       0.000       0.000       0.000    
       4.5000E-04  4.5000E-04  4.5000E-04  4.5000E-04  2.7000E-03  2.7000E-03  2.7000E-03   0.000       0.000       0.000    
        0.000       0.000       0.000       0.000       0.000       0.000       0.000       0.000       0.000    
  70    0.000       0.000       0.000       0.000       0.000       0.000       0.000       0.000       0.000       0.000    
        0.000       0.000       0.000       0.000       0.000       0.000       0.000       0.000       0.000       0.000    
        0.000       0.000       0.000       0.000       0.000       0.000       0.000       0.000       0.000       0.000    
        0.000       0.000       0.000       0.000       0.000       0.000       0.000       0.000       0.000       0.000    
        0.000       0.000       0.000       0.000       0.000       0.000       0.000       0.000       0.000       0.000    
        0.000       0.000       0.000       0.000       0.000       0.000       0.000       0.000       0.000       0.000    
        0.000      4.5000E-04  4.5000E-04  4.5000E-04  2.7000E-03  2.7000E-03   0.000       0.000       0.000       0.000    
        0.000       0.000       0.000       0.000       0.000       0.000       0.000       0.000       0.000    
  71    0.000       0.000       0.000       0.000       0.000       0.000       0.000       0.000       0.000       0.000    
        0.000       0.000       0.000       0.000       0.000       0.000       0.000       0.000       0.000       0.000    
        0.000       0.000       0.000       0.000       0.000       0.000       0.000       0.000       0.000       0.000    
        0.000       0.000       0.000       0.000       0.000       0.000       0.000       0.000       0.000       0.000    
        0.000       0.000       0.000       0.000       0.000       0.000       0.000       0.000       0.000       0.000    
        0.000       0.000       0.000       0.000       0.000       0.000       0.000       0.000       0.000       0.000    
        0.000       0.000      4.5000E-04  9.0000E-04   0.000       0.000       0.000       0.000       0.000       0.000    
        0.000       0.000       0.000       0.000       0.000       0.000       0.000       0.000       0.000    

         SPECIFIC STORAGE =  2.000000E-06 FOR LAYER   3

 SFR7 -- STREAMFLOW ROUTING PACKAGE, VERSION 1.0.5, 2012-04-05
         INPUT READ FROM UNIT  15
 #NAD83 Sagehen-GRID SFR2
 #NSTRM NSS NSFRPAR NPARSEG   CONST  DLEAK ISTCB1  ISTCB2 [ISFROPT] [NSTRAIL] [ISUZN] [NSFRSETS] [IRTFLG]
 #KRCH IRCH JRCH ISEG IREACH       RCHLEN [STRTOP]       [SLOPE] [STRTHICK] [STRHC1] [THTS] [THTI] [EPS] [UHC]
 No named parameters

 PROCESSING SFR2 OPTIONS
 
  Some stream information will be read by reach. This option replaces NSTRM<0

 END PROCESSING SFR2 OPTIONS
 


 NUMBER OF STREAM REACHES IS  201

 NUMBER OF STREAM SEGMENTS IS   23

 NUMBER OF STREAM PARAMETERS IS    0

 NUMBER OF STREAM SEGMENTS DEFINED USING PARAMETERS IS              0

 MAXIMUM ERROR FOR STREAM LEAKAGE RATES IS  1.00E-05

 CONSTANT FOR MANNINGS EQUATION IS  8.6400E+04





 OPTION FOR UNSATURATED FLOW BENEATH STREAMBEDS IS ACTIVE 




   STREAM NETWORK DESCRIPTION: 

   LAYER  ROW   COL SEGMENT  REACH   LENGTH     STREAMBED   STREAMBED   STREAMBED  STREAMBED    SATURATED    INITIAL    RESIDUAL  BROOKS/COREY  SAT. VERT.
                    NUMBER  NUMBER  IN CELL     TOP ELEV.     SLOPE     THICKNESS  HYD. COND.   WAT.CONT.   WAT.CONT.   WAT.CONT.    EPSILON    HYD. COND.        
   -------------------------------------------------------------------------------------------------------------------------------------------------------
     2    18    62     1       1   1.2728E+02  2.0730E+03  7.8567E-02  1.0000E+00  5.0000E+00  0.3000E+00  0.2000E+00  0.1500E+00  3.5000E+00  3.0000E-01
     2    19    63     1       2   1.2728E+02  2.0630E+03  7.4639E-02  1.0000E+00  5.0000E+00  0.3000E+00  0.2000E+00  0.1500E+00  3.5000E+00  3.0000E-01
     2    20    64     1       3   1.0864E+02  2.0540E+03  5.5228E-02  1.0000E+00  5.0000E+00  0.3000E+00  0.2000E+00  0.1500E+00  3.5000E+00  3.0000E-01
     2    21    64     1       4   1.0864E+02  2.0510E+03  2.7614E-02  1.0000E+00  5.0000E+00  0.3000E+00  0.2000E+00  0.1500E+00  3.5000E+00  3.0000E-01
     2    22    65     1       5   6.3640E+01  2.0480E+03  4.7140E-02  1.0000E+00  5.0000E+00  0.3000E+00  0.2000E+00  0.1500E+00  3.5000E+00  3.0000E-01
     2    20    66     2       1   1.2728E+02  2.0530E+03  2.3570E-02  1.0000E+00  5.0000E+00  0.3000E+00  0.2000E+00  0.1500E+00  3.5000E+00  3.0000E-01
     2    21    65     2       2   1.0864E+02  2.0510E+03  2.3012E-02  1.0000E+00  5.0000E+00  0.3000E+00  0.2000E+00  0.1500E+00  3.5000E+00  3.0000E-01
     2    22    65     2       3   4.5000E+01  2.0480E+03  6.6667E-02  1.0000E+00  5.0000E+00  0.3000E+00  0.2000E+00  0.1500E+00  3.5000E+00  3.0000E-01
     2    22    65     3       1   4.5000E+01  2.0480E+03  6.6667E-02  1.0000E+00  5.0000E+00  0.3000E+00  0.2000E+00  0.1500E+00  3.5000E+00  3.0000E-01
     2    23    65     3       2   1.0864E+02  2.0450E+03  1.3807E-02  1.0000E+00  5.0000E+00  0.3000E+00  0.2000E+00  0.1500E+00  3.5000E+00  3.0000E-01
     2    24    66     3       3   1.2728E+02  2.0450E+03  1.0000E-07  1.0000E+00  5.0000E+00  0.3000E+00  0.2000E+00  0.1500E+00  3.5000E+00  3.0000E-01
     2    25    67     3       4   1.2728E+02  2.0450E+03  1.1785E-02  1.0000E+00  5.0000E+00  0.3000E+00  0.2000E+00  0.1500E+00  3.5000E+00  3.0000E-01
     2    26    68     3       5   1.0864E+02  2.0420E+03  1.8409E-02  1.0000E+00  5.0000E+00  0.3000E+00  0.2000E+00  0.1500E+00  3.5000E+00  3.0000E-01
     2    27    68     3       6   1.0864E+02  2.0410E+03  2.7614E-02  1.0000E+00  5.0000E+00  0.3000E+00  0.2000E+00  0.1500E+00  3.5000E+00  3.0000E-01
     2    28    69     3       7   1.0864E+02  2.0360E+03  5.5228E-02  1.0000E+00  5.0000E+00  0.3000E+00  0.2000E+00  0.1500E+00  3.5000E+00  3.0000E-01
     2    29    69     3       8   9.0000E+01  2.0290E+03  7.2222E-02  1.0000E+00  5.0000E+00  0.3000E+00  0.2000E+00  0.1500E+00  3.5000E+00  3.0000E-01
     2    30    69     3       9   1.0864E+02  2.0230E+03  8.2843E-02  1.0000E+00  5.0000E+00  0.3000E+00  0.2000E+00  0.1500E+00  3.5000E+00  3.0000E-01
     2    31    70     3      10   1.0864E+02  2.0110E+03  8.2843E-02  1.0000E+00  5.0000E+00  0.3000E+00  0.2000E+00  0.1500E+00  3.5000E+00  3.0000E-01
     2    32    70     3      11   9.0000E+01  2.0050E+03  4.4444E-02  1.0000E+00  5.0000E+00  0.3000E+00  0.2000E+00  0.1500E+00  3.5000E+00  3.0000E-01
     2    33    70     3      12   1.0864E+02  2.0030E+03  8.7445E-02  1.0000E+00  5.0000E+00  0.3000E+00  0.2000E+00  0.1500E+00  3.5000E+00  3.0000E-01
     2    34    69     3      13   1.0864E+02  1.9860E+03  1.3807E-01  1.0000E+00  5.0000E+00  0.3000E+00  0.2000E+00  0.1500E+00  3.5000E+00  3.0000E-01
     2    35    69     3      14   9.0000E+01  1.9730E+03  1.0556E-01  1.0000E+00  5.0000E+00  0.3000E+00  0.2000E+00  0.1500E+00  3.5000E+00  3.0000E-01
     2    36    69     3      15   9.0000E+01  1.9670E+03  7.7778E-02  1.0000E+00  5.0000E+00  0.3000E+00  0.2000E+00  0.1500E+00  3.5000E+00  3.0000E-01
     2    37    69     3      16   9.0000E+01  1.9590E+03  7.7778E-02  1.0000E+00  5.0000E+00  0.3000E+00  0.2000E+00  0.1500E+00  3.5000E+00  3.0000E-01
     2    38    69     3      17   1.0864E+02  1.9530E+03  5.9831E-02  1.0000E+00  5.0000E+00  0.3000E+00  0.2000E+00  0.1500E+00  3.5000E+00  3.0000E-01
     2    39    70     3      18   6.3640E+01  1.9460E+03  8.6424E-02  1.0000E+00  5.0000E+00  0.3000E+00  0.2000E+00  0.1500E+00  3.5000E+00  3.0000E-01
     2    25    49     4       1   1.2728E+02  2.0350E+03  8.2496E-02  1.0000E+00  5.0000E+00  0.3000E+00  0.2000E+00  0.1500E+00  3.5000E+00  3.0000E-01
     2    26    50     4       2   1.2728E+02  2.0260E+03  6.2854E-02  1.0000E+00  5.0000E+00  0.3000E+00  0.2000E+00  0.1500E+00  3.5000E+00  3.0000E-01
     2    27    51     4       3   1.0864E+02  2.0190E+03  5.5228E-02  1.0000E+00  5.0000E+00  0.3000E+00  0.2000E+00  0.1500E+00  3.5000E+00  3.0000E-01
     2    28    51     4       4   1.0864E+02  2.0140E+03  4.6024E-02  1.0000E+00  5.0000E+00  0.3000E+00  0.2000E+00  0.1500E+00  3.5000E+00  3.0000E-01
     2    29    52     4       5   1.0864E+02  2.0090E+03  4.6024E-02  1.0000E+00  5.0000E+00  0.3000E+00  0.2000E+00  0.1500E+00  3.5000E+00  3.0000E-01
     2    30    52     4       6   9.0000E+01  2.0040E+03  5.5556E-02  1.0000E+00  5.0000E+00  0.3000E+00  0.2000E+00  0.1500E+00  3.5000E+00  3.0000E-01
     2    31    52     4       7   9.0000E+01  1.9990E+03  3.8889E-02  1.0000E+00  5.0000E+00  0.3000E+00  0.2000E+00  0.1500E+00  3.5000E+00  3.0000E-01
     2    32    52     4       8   1.0864E+02  1.9970E+03  3.6819E-02  1.0000E+00  5.0000E+00  0.3000E+00  0.2000E+00  0.1500E+00  3.5000E+00  3.0000E-01
     2    33    53     4       9   1.2728E+02  1.9910E+03  3.9284E-02  1.0000E+00  5.0000E+00  0.3000E+00  0.2000E+00  0.1500E+00  3.5000E+00  3.0000E-01
     2    34    54     4      10   1.2728E+02  1.9870E+03  3.5355E-02  1.0000E+00  5.0000E+00  0.3000E+00  0.2000E+00  0.1500E+00  3.5000E+00  3.0000E-01
     2    35    55     4      11   1.0864E+02  1.9820E+03  5.0626E-02  1.0000E+00  5.0000E+00  0.3000E+00  0.2000E+00  0.1500E+00  3.5000E+00  3.0000E-01
     2    36    55     4      12   4.5000E+01  1.9760E+03  7.7778E-02  1.0000E+00  5.0000E+00  0.3000E+00  0.2000E+00  0.1500E+00  3.5000E+00  3.0000E-01
     2    35    37     5       1   6.3640E+01  2.0540E+03  1.2571E-01  1.0000E+00  0.0000E+00  0.3000E+00  0.2000E+00  0.1500E+00  3.5000E+00  3.0000E-01
     2    34    38     5       2   1.2728E+02  2.0400E+03  6.2854E-02  1.0000E+00  0.0000E+00  0.3000E+00  0.2000E+00  0.1500E+00  3.5000E+00  3.0000E-01
     2    33    39     5       3   1.2728E+02  2.0320E+03  3.5355E-02  1.0000E+00  0.0000E+00  0.3000E+00  0.2000E+00  0.1500E+00  3.5000E+00  3.0000E-01
     2    32    40     5       4   1.0864E+02  2.0300E+03  3.6819E-02  1.0000E+00  0.0000E+00  0.3000E+00  0.2000E+00  0.1500E+00  3.5000E+00  3.0000E-01
     2    32    41     5       5   9.0000E+01  2.0260E+03  6.6667E-02  1.0000E+00  0.0000E+00  0.3000E+00  0.2000E+00  0.1500E+00  3.5000E+00  3.0000E-01
     2    32    42     5       6   9.0000E+01  2.0220E+03  3.8889E-02  1.0000E+00  0.0000E+00  0.3000E+00  0.2000E+00  0.1500E+00  3.5000E+00  3.0000E-01
     2    32    43     5       7   1.0864E+02  2.0200E+03  2.7614E-02  1.0000E+00  0.0000E+00  0.3000E+00  0.2000E+00  0.1500E+00  3.5000E+00  3.0000E-01
     2    33    44     5       8   1.2728E+02  2.0190E+03  2.7499E-02  1.0000E+00  0.0000E+00  0.3000E+00  0.2000E+00  0.1500E+00  3.5000E+00  3.0000E-01
     2    34    47     6       1   4.5000E+01  2.0070E+03  1.4444E-01  1.0000E+00  5.0000E+00  0.3000E+00  0.2000E+00  0.1500E+00  3.5000E+00  3.0000E-01
     2    34    48     6       2   1.0864E+02  2.0010E+03  5.9831E-02  1.0000E+00  5.0000E+00  0.3000E+00  0.2000E+00  0.1500E+00  3.5000E+00  3.0000E-01
     2    35    49     6       3   1.0864E+02  1.9940E+03  5.0626E-02  1.0000E+00  5.0000E+00  0.3000E+00  0.2000E+00  0.1500E+00  3.5000E+00  3.0000E-01
     2    35    50     6       4   9.0000E+01  1.9900E+03  2.7778E-02  1.0000E+00  5.0000E+00  0.3000E+00  0.2000E+00  0.1500E+00  3.5000E+00  3.0000E-01
     2    35    51     6       5   1.0864E+02  1.9890E+03  2.7614E-02  1.0000E+00  5.0000E+00  0.3000E+00  0.2000E+00  0.1500E+00  3.5000E+00  3.0000E-01
     2    36    52     6       6   1.0864E+02  1.9840E+03  4.1421E-02  1.0000E+00  5.0000E+00  0.3000E+00  0.2000E+00  0.1500E+00  3.5000E+00  3.0000E-01
     2    36    53     6       7   1.0864E+02  1.9800E+03  1.8409E-02  1.0000E+00  5.0000E+00  0.3000E+00  0.2000E+00  0.1500E+00  3.5000E+00  3.0000E-01
     2    37    54     6       8   1.2728E+02  1.9800E+03  1.5713E-02  1.0000E+00  5.0000E+00  0.3000E+00  0.2000E+00  0.1500E+00  3.5000E+00  3.0000E-01
     2    36    55     6       9   6.3640E+01  1.9760E+03  3.9284E-02  1.0000E+00  5.0000E+00  0.3000E+00  0.2000E+00  0.1500E+00  3.5000E+00  3.0000E-01
     2    36    34     7       1   6.3640E+01  2.0770E+03  1.7285E-01  1.0000E+00  5.0000E+00  0.3000E+00  0.2000E+00  0.1500E+00  3.5000E+00  3.0000E-01
     2    35    35     7       2   1.0864E+02  2.0670E+03  6.9036E-02  1.0000E+00  5.0000E+00  0.3000E+00  0.2000E+00  0.1500E+00  3.5000E+00  3.0000E-01
     2    35    36     7       3   9.0000E+01  2.0620E+03  7.2222E-02  1.0000E+00  5.0000E+00  0.3000E+00  0.2000E+00  0.1500E+00  3.5000E+00  3.0000E-01
     2    35    37     7       4   4.5000E+01  2.0540E+03  1.7778E-01  1.0000E+00  5.0000E+00  0.3000E+00  0.2000E+00  0.1500E+00  3.5000E+00  3.0000E-01
     2    52    49     8       1   1.2728E+02  2.1210E+03  7.4639E-02  1.0000E+00  5.0000E+00  0.3000E+00  0.2000E+00  0.1500E+00  3.5000E+00  3.0000E-01
     2    51    48     8       2   1.2728E+02  2.1170E+03  1.5713E-02  1.0000E+00  5.0000E+00  0.3000E+00  0.2000E+00  0.1500E+00  3.5000E+00  3.0000E-01
     2    50    47     8       3   1.0864E+02  2.1170E+03  3.6819E-02  1.0000E+00  5.0000E+00  0.3000E+00  0.2000E+00  0.1500E+00  3.5000E+00  3.0000E-01
     2    49    47     8       4   1.0864E+02  2.1090E+03  4.6024E-02  1.0000E+00  5.0000E+00  0.3000E+00  0.2000E+00  0.1500E+00  3.5000E+00  3.0000E-01
     2    48    46     8       5   1.0864E+02  2.1070E+03  1.8409E-02  1.0000E+00  5.0000E+00  0.3000E+00  0.2000E+00  0.1500E+00  3.5000E+00  3.0000E-01
     2    47    46     8       6   9.0000E+01  2.1050E+03  2.2222E-02  1.0000E+00  5.0000E+00  0.3000E+00  0.2000E+00  0.1500E+00  3.5000E+00  3.0000E-01
     2    46    46     8       7   9.0000E+01  2.1030E+03  3.3333E-02  1.0000E+00  5.0000E+00  0.3000E+00  0.2000E+00  0.1500E+00  3.5000E+00  3.0000E-01
     2    45    46     8       8   9.0000E+01  2.0990E+03  6.6667E-02  1.0000E+00  5.0000E+00  0.3000E+00  0.2000E+00  0.1500E+00  3.5000E+00  3.0000E-01
     2    44    46     8       9   9.0000E+01  2.0910E+03  1.0556E-01  1.0000E+00  5.0000E+00  0.3000E+00  0.2000E+00  0.1500E+00  3.5000E+00  3.0000E-01
     2    43    46     8      10   9.0000E+01  2.0800E+03  1.0556E-01  1.0000E+00  5.0000E+00  0.3000E+00  0.2000E+00  0.1500E+00  3.5000E+00  3.0000E-01
     2    42    46     8      11   1.0864E+02  2.0720E+03  9.2047E-02  1.0000E+00  5.0000E+00  0.3000E+00  0.2000E+00  0.1500E+00  3.5000E+00  3.0000E-01
     2    41    45     8      12   1.0864E+02  2.0600E+03  8.2843E-02  1.0000E+00  5.0000E+00  0.3000E+00  0.2000E+00  0.1500E+00  3.5000E+00  3.0000E-01
     2    40    45     8      13   9.0000E+01  2.0540E+03  7.7778E-02  1.0000E+00  5.0000E+00  0.3000E+00  0.2000E+00  0.1500E+00  3.5000E+00  3.0000E-01
     2    39    45     8      14   9.0000E+01  2.0460E+03  1.0556E-01  1.0000E+00  5.0000E+00  0.3000E+00  0.2000E+00  0.1500E+00  3.5000E+00  3.0000E-01
     2    38    45     8      15   9.0000E+01  2.0350E+03  1.0556E-01  1.0000E+00  5.0000E+00  0.3000E+00  0.2000E+00  0.1500E+00  3.5000E+00  3.0000E-01
     2    37    45     8      16   1.0864E+02  2.0270E+03  6.4433E-02  1.0000E+00  5.0000E+00  0.3000E+00  0.2000E+00  0.1500E+00  3.5000E+00  3.0000E-01
     2    36    46     8      17   1.0864E+02  2.0210E+03  5.9831E-02  1.0000E+00  5.0000E+00  0.3000E+00  0.2000E+00  0.1500E+00  3.5000E+00  3.0000E-01
     2    35    46     8      18   1.0864E+02  2.0140E+03  6.4433E-02  1.0000E+00  5.0000E+00  0.3000E+00  0.2000E+00  0.1500E+00  3.5000E+00  3.0000E-01
     2    34    47     8      19   6.3640E+01  2.0070E+03  1.0214E-01  1.0000E+00  5.0000E+00  0.3000E+00  0.2000E+00  0.1500E+00  3.5000E+00  3.0000E-01
     2    37    26     9       1   9.0000E+01  2.1470E+03  1.4444E-01  1.0000E+00  5.0000E+00  0.3000E+00  0.2000E+00  0.1500E+00  3.5000E+00  3.0000E-01
     2    37    27     9       2   9.0000E+01  2.1340E+03  1.2222E-01  1.0000E+00  5.0000E+00  0.3000E+00  0.2000E+00  0.1500E+00  3.5000E+00  3.0000E-01
     2    37    28     9       3   1.0864E+02  2.1250E+03  8.7445E-02  1.0000E+00  5.0000E+00  0.3000E+00  0.2000E+00  0.1500E+00  3.5000E+00  3.0000E-01
     2    36    29     9       4   1.0864E+02  2.1150E+03  8.2843E-02  1.0000E+00  5.0000E+00  0.3000E+00  0.2000E+00  0.1500E+00  3.5000E+00  3.0000E-01
     2    36    30     9       5   9.0000E+01  2.1070E+03  9.4444E-02  1.0000E+00  5.0000E+00  0.3000E+00  0.2000E+00  0.1500E+00  3.5000E+00  3.0000E-01
     2    36    31     9       6   9.0000E+01  2.0980E+03  8.8889E-02  1.0000E+00  5.0000E+00  0.3000E+00  0.2000E+00  0.1500E+00  3.5000E+00  3.0000E-01
     2    36    32     9       7   9.0000E+01  2.0910E+03  7.7778E-02  1.0000E+00  5.0000E+00  0.3000E+00  0.2000E+00  0.1500E+00  3.5000E+00  3.0000E-01
     2    36    33     9       8   9.0000E+01  2.0840E+03  7.7778E-02  1.0000E+00  5.0000E+00  0.3000E+00  0.2000E+00  0.1500E+00  3.5000E+00  3.0000E-01
     2    36    34     9       9   4.5000E+01  2.0770E+03  1.8889E-01  1.0000E+00  5.0000E+00  0.3000E+00  0.2000E+00  0.1500E+00  3.5000E+00  3.0000E-01
     2    58    37    10       1   9.0000E+01  2.1500E+03  2.2222E-02  1.0000E+00  5.0000E+00  0.3000E+00  0.2000E+00  0.1500E+00  3.5000E+00  3.0000E-01
     2    57    37    10       2   1.0864E+02  2.1470E+03  3.2217E-02  1.0000E+00  5.0000E+00  0.3000E+00  0.2000E+00  0.1500E+00  3.5000E+00  3.0000E-01
     2    56    38    10       3   1.0864E+02  2.1430E+03  4.1421E-02  1.0000E+00  5.0000E+00  0.3000E+00  0.2000E+00  0.1500E+00  3.5000E+00  3.0000E-01
     2    55    38    10       4   9.0000E+01  2.1380E+03  4.4444E-02  1.0000E+00  5.0000E+00  0.3000E+00  0.2000E+00  0.1500E+00  3.5000E+00  3.0000E-01
     2    54    38    10       5   9.0000E+01  2.1350E+03  3.3333E-02  1.0000E+00  5.0000E+00  0.3000E+00  0.2000E+00  0.1500E+00  3.5000E+00  3.0000E-01
     2    53    38    10       6   9.0000E+01  2.1320E+03  3.3333E-02  1.0000E+00  5.0000E+00  0.3000E+00  0.2000E+00  0.1500E+00  3.5000E+00  3.0000E-01
     2    52    38    10       7   1.0864E+02  2.1290E+03  1.8409E-02  1.0000E+00  5.0000E+00  0.3000E+00  0.2000E+00  0.1500E+00  3.5000E+00  3.0000E-01
     2    51    39    10       8   1.0864E+02  2.1280E+03  1.8409E-02  1.0000E+00  5.0000E+00  0.3000E+00  0.2000E+00  0.1500E+00  3.5000E+00  3.0000E-01
     2    50    39    10       9   1.0864E+02  2.1250E+03  3.2217E-02  1.0000E+00  5.0000E+00  0.3000E+00  0.2000E+00  0.1500E+00  3.5000E+00  3.0000E-01
     2    49    38    10      10   1.2728E+02  2.1210E+03  2.7499E-02  1.0000E+00  5.0000E+00  0.3000E+00  0.2000E+00  0.1500E+00  3.5000E+00  3.0000E-01
     2    48    37    10      11   1.2728E+02  2.1180E+03  4.7140E-02  1.0000E+00  5.0000E+00  0.3000E+00  0.2000E+00  0.1500E+00  3.5000E+00  3.0000E-01
     2    47    36    10      12   1.0864E+02  2.1090E+03  5.5228E-02  1.0000E+00  5.0000E+00  0.3000E+00  0.2000E+00  0.1500E+00  3.5000E+00  3.0000E-01
     2    46    36    10      13   9.0000E+01  2.1060E+03  3.8889E-02  1.0000E+00  5.0000E+00  0.3000E+00  0.2000E+00  0.1500E+00  3.5000E+00  3.0000E-01
     2    45    36    10      14   9.0000E+01  2.1020E+03  3.8889E-02  1.0000E+00  5.0000E+00  0.3000E+00  0.2000E+00  0.1500E+00  3.5000E+00  3.0000E-01
     2    44    36    10      15   9.0000E+01  2.0990E+03  3.3333E-02  1.0000E+00  5.0000E+00  0.3000E+00  0.2000E+00  0.1500E+00  3.5000E+00  3.0000E-01
     2    43    36    10      16   1.0864E+02  2.0960E+03  4.1421E-02  1.0000E+00  5.0000E+00  0.3000E+00  0.2000E+00  0.1500E+00  3.5000E+00  3.0000E-01
     2    42    37    10      17   1.0864E+02  2.0900E+03  7.3638E-02  1.0000E+00  5.0000E+00  0.3000E+00  0.2000E+00  0.1500E+00  3.5000E+00  3.0000E-01
     2    41    37    10      18   9.0000E+01  2.0800E+03  8.8889E-02  1.0000E+00  5.0000E+00  0.3000E+00  0.2000E+00  0.1500E+00  3.5000E+00  3.0000E-01
     2    40    37    10      19   1.0864E+02  2.0740E+03  4.1421E-02  1.0000E+00  5.0000E+00  0.3000E+00  0.2000E+00  0.1500E+00  3.5000E+00  3.0000E-01
     2    39    38    10      20   1.0864E+02  2.0710E+03  3.2217E-02  1.0000E+00  5.0000E+00  0.3000E+00  0.2000E+00  0.1500E+00  3.5000E+00  3.0000E-01
     2    38    38    10      21   1.0864E+02  2.0670E+03  4.6024E-02  1.0000E+00  5.0000E+00  0.3000E+00  0.2000E+00  0.1500E+00  3.5000E+00  3.0000E-01
     2    37    37    10      22   1.0864E+02  2.0610E+03  4.6024E-02  1.0000E+00  5.0000E+00  0.3000E+00  0.2000E+00  0.1500E+00  3.5000E+00  3.0000E-01
     2    36    37    10      23   9.0000E+01  2.0570E+03  3.8889E-02  1.0000E+00  5.0000E+00  0.3000E+00  0.2000E+00  0.1500E+00  3.5000E+00  3.0000E-01
     2    35    37    10      24   4.5000E+01  2.0540E+03  1.2222E-01  1.0000E+00  5.0000E+00  0.3000E+00  0.2000E+00  0.1500E+00  3.5000E+00  3.0000E-01
     2    36    55    11       1   4.5000E+01  1.9760E+03  7.7778E-02  1.0000E+00  5.0000E+00  0.3000E+00  0.2000E+00  0.1500E+00  3.5000E+00  3.0000E-01
     2    36    56    11       2   1.0864E+02  1.9750E+03  1.3807E-02  1.0000E+00  5.0000E+00  0.3000E+00  0.2000E+00  0.1500E+00  3.5000E+00  3.0000E-01
     2    37    57    11       3   1.0864E+02  1.9730E+03  1.3807E-02  1.0000E+00  5.0000E+00  0.3000E+00  0.2000E+00  0.1500E+00  3.5000E+00  3.0000E-01
     2    37    58    11       4   9.0000E+01  1.9720E+03  5.5556E-03  1.0000E+00  5.0000E+00  0.3000E+00  0.2000E+00  0.1500E+00  3.5000E+00  3.0000E-01
     2    37    59    11       5   9.0000E+01  1.9720E+03  1.1111E-02  1.0000E+00  5.0000E+00  0.3000E+00  0.2000E+00  0.1500E+00  3.5000E+00  3.0000E-01
     2    37    60    11       6   1.0864E+02  1.9700E+03  2.3012E-02  1.0000E+00  5.0000E+00  0.3000E+00  0.2000E+00  0.1500E+00  3.5000E+00  3.0000E-01
     2    38    61    11       7   1.0864E+02  1.9670E+03  3.2217E-02  1.0000E+00  5.0000E+00  0.3000E+00  0.2000E+00  0.1500E+00  3.5000E+00  3.0000E-01
     2    38    62    11       8   4.5000E+01  1.9630E+03  4.4444E-02  1.0000E+00  5.0000E+00  0.3000E+00  0.2000E+00  0.1500E+00  3.5000E+00  3.0000E-01
     2    51    11    12       1   1.2728E+02  2.3870E+03  8.6424E-02  1.0000E+00  5.0000E+00  0.3000E+00  0.2000E+00  0.1500E+00  3.5000E+00  3.0000E-01
     2    50    12    12       2   1.0864E+02  2.3750E+03  1.0125E-01  1.0000E+00  5.0000E+00  0.3000E+00  0.2000E+00  0.1500E+00  3.5000E+00  3.0000E-01
     2    49    12    12       3   1.0864E+02  2.3650E+03  8.7445E-02  1.0000E+00  5.0000E+00  0.3000E+00  0.2000E+00  0.1500E+00  3.5000E+00  3.0000E-01
     2    48    13    12       4   1.0864E+02  2.3560E+03  6.9036E-02  1.0000E+00  5.0000E+00  0.3000E+00  0.2000E+00  0.1500E+00  3.5000E+00  3.0000E-01
     2    48    14    12       5   1.0864E+02  2.3500E+03  7.3638E-02  1.0000E+00  5.0000E+00  0.3000E+00  0.2000E+00  0.1500E+00  3.5000E+00  3.0000E-01
     2    47    15    12       6   1.0864E+02  2.3400E+03  6.9036E-02  1.0000E+00  5.0000E+00  0.3000E+00  0.2000E+00  0.1500E+00  3.5000E+00  3.0000E-01
     2    47    16    12       7   1.0864E+02  2.3350E+03  5.0626E-02  1.0000E+00  5.0000E+00  0.3000E+00  0.2000E+00  0.1500E+00  3.5000E+00  3.0000E-01
     2    46    17    12       8   1.0864E+02  2.3290E+03  6.4433E-02  1.0000E+00  5.0000E+00  0.3000E+00  0.2000E+00  0.1500E+00  3.5000E+00  3.0000E-01
     2    46    18    12       9   9.0000E+01  2.3210E+03  1.2778E-01  1.0000E+00  5.0000E+00  0.3000E+00  0.2000E+00  0.1500E+00  3.5000E+00  3.0000E-01
     2    46    19    12      10   9.0000E+01  2.3060E+03  8.3333E-02  1.0000E+00  5.0000E+00  0.3000E+00  0.2000E+00  0.1500E+00  3.5000E+00  3.0000E-01
     2    46    20    12      11   1.0864E+02  2.3060E+03  1.4728E-01  1.0000E+00  5.0000E+00  0.3000E+00  0.2000E+00  0.1500E+00  3.5000E+00  3.0000E-01
     2    45    21    12      12   1.2728E+02  2.2740E+03  2.1999E-01  1.0000E+00  5.0000E+00  0.3000E+00  0.2000E+00  0.1500E+00  3.5000E+00  3.0000E-01
     2    44    22    12      13   1.2728E+02  2.2500E+03  1.6892E-01  1.0000E+00  5.0000E+00  0.3000E+00  0.2000E+00  0.1500E+00  3.5000E+00  3.0000E-01
     2    43    23    12      14   1.2728E+02  2.2310E+03  1.6499E-01  1.0000E+00  5.0000E+00  0.3000E+00  0.2000E+00  0.1500E+00  3.5000E+00  3.0000E-01
     2    42    24    12      15   1.0864E+02  2.2080E+03  1.4267E-01  1.0000E+00  5.0000E+00  0.3000E+00  0.2000E+00  0.1500E+00  3.5000E+00  3.0000E-01
     2    42    25    12      16   9.0000E+01  2.2000E+03  1.1111E-01  1.0000E+00  5.0000E+00  0.3000E+00  0.2000E+00  0.1500E+00  3.5000E+00  3.0000E-01
     2    42    26    12      17   9.0000E+01  2.1880E+03  1.6667E-01  1.0000E+00  5.0000E+00  0.3000E+00  0.2000E+00  0.1500E+00  3.5000E+00  3.0000E-01
     2    42    27    12      18   9.0000E+01  2.1700E+03  1.6111E-01  1.0000E+00  5.0000E+00  0.3000E+00  0.2000E+00  0.1500E+00  3.5000E+00  3.0000E-01
     2    42    28    12      19   1.0864E+02  2.1590E+03  1.2887E-01  1.0000E+00  5.0000E+00  0.3000E+00  0.2000E+00  0.1500E+00  3.5000E+00  3.0000E-01
     2    41    29    12      20   1.2728E+02  2.1420E+03  1.2571E-01  1.0000E+00  5.0000E+00  0.3000E+00  0.2000E+00  0.1500E+00  3.5000E+00  3.0000E-01
     2    40    30    12      21   1.2728E+02  2.1270E+03  1.0607E-01  1.0000E+00  5.0000E+00  0.3000E+00  0.2000E+00  0.1500E+00  3.5000E+00  3.0000E-01
     2    39    31    12      22   1.2728E+02  2.1150E+03  9.4281E-02  1.0000E+00  5.0000E+00  0.3000E+00  0.2000E+00  0.1500E+00  3.5000E+00  3.0000E-01
     2    38    32    12      23   1.2728E+02  2.1030E+03  1.0214E-01  1.0000E+00  5.0000E+00  0.3000E+00  0.2000E+00  0.1500E+00  3.5000E+00  3.0000E-01
     2    37    33    12      24   1.2728E+02  2.0890E+03  1.0214E-01  1.0000E+00  5.0000E+00  0.3000E+00  0.2000E+00  0.1500E+00  3.5000E+00  3.0000E-01
     2    36    34    12      25   6.3640E+01  2.0770E+03  1.7285E-01  1.0000E+00  5.0000E+00  0.3000E+00  0.2000E+00  0.1500E+00  3.5000E+00  3.0000E-01
     2    38    62    13       1   4.5000E+01  1.9630E+03  1.1111E-01  1.0000E+00  5.0000E+00  0.3000E+00  0.2000E+00  0.1500E+00  3.5000E+00  3.0000E-01
     2    38    63    13       2   9.0000E+01  1.9630E+03  1.0000E-07  1.0000E+00  5.0000E+00  0.3000E+00  0.2000E+00  0.1500E+00  3.5000E+00  3.0000E-01
     2    38    64    13       3   9.0000E+01  1.9630E+03  1.0000E-07  1.0000E+00  5.0000E+00  0.3000E+00  0.2000E+00  0.1500E+00  3.5000E+00  3.0000E-01
     2    38    65    13       4   4.5000E+01  1.9630E+03  1.6667E-02  1.0000E+00  5.0000E+00  0.3000E+00  0.2000E+00  0.1500E+00  3.5000E+00  3.0000E-01
     2    46    61    14       1   9.0000E+01  2.0170E+03  7.7778E-02  1.0000E+00  5.0000E+00  0.3000E+00  0.2000E+00  0.1500E+00  3.5000E+00  3.0000E-01
     2    45    61    14       2   9.0000E+01  2.0100E+03  6.1111E-02  1.0000E+00  5.0000E+00  0.3000E+00  0.2000E+00  0.1500E+00  3.5000E+00  3.0000E-01
     2    44    61    14       3   9.0000E+01  2.0060E+03  6.1111E-02  1.0000E+00  5.0000E+00  0.3000E+00  0.2000E+00  0.1500E+00  3.5000E+00  3.0000E-01
     2    43    61    14       4   9.0000E+01  1.9990E+03  7.2222E-02  1.0000E+00  5.0000E+00  0.3000E+00  0.2000E+00  0.1500E+00  3.5000E+00  3.0000E-01
     2    42    61    14       5   9.0000E+01  1.9930E+03  7.7778E-02  1.0000E+00  5.0000E+00  0.3000E+00  0.2000E+00  0.1500E+00  3.5000E+00  3.0000E-01
     2    41    61    14       6   9.0000E+01  1.9850E+03  8.3333E-02  1.0000E+00  5.0000E+00  0.3000E+00  0.2000E+00  0.1500E+00  3.5000E+00  3.0000E-01
     2    40    61    14       7   9.0000E+01  1.9780E+03  6.6667E-02  1.0000E+00  5.0000E+00  0.3000E+00  0.2000E+00  0.1500E+00  3.5000E+00  3.0000E-01
     2    39    61    14       8   1.0864E+02  1.9730E+03  6.9036E-02  1.0000E+00  5.0000E+00  0.3000E+00  0.2000E+00  0.1500E+00  3.5000E+00  3.0000E-01
     2    38    62    14       9   6.3640E+01  1.9630E+03  7.8567E-02  1.0000E+00  5.0000E+00  0.3000E+00  0.2000E+00  0.1500E+00  3.5000E+00  3.0000E-01
     2    39    70    15       1   4.5000E+01  1.9460E+03  1.2222E-01  1.0000E+00  5.0000E+00  0.3000E+00  0.2000E+00  0.1500E+00  3.5000E+00  3.0000E-01
     2    40    75    16       1   4.5000E+01  1.9340E+03  5.5556E-02  1.0000E+00  5.0000E+00  0.3000E+00  0.2000E+00  0.1500E+00  3.5000E+00  3.0000E-01
     **WARNING** CELL BENEATH STREAM REACH IS INACTIVE
     CELL BELOW MUST HAVE THE SAME SPECIFIC YIELD
     AND THE TOP ELEVATION OF ACTIVE CELL MUST EQUAL BOTTOM OF INACTIVE CELL
     INACTIVE CELL IS BELOW STREAM REACH AND SEGMENT:    2   16
     2    40    76    16       2   9.0000E+01  1.9330E+03  1.6667E-02  1.0000E+00  5.0000E+00  0.3000E+00  0.2000E+00  0.1500E+00  3.5000E+00  3.0000E-01
     2    55    73    17       1   9.0000E+01  2.0410E+03  1.2778E-01  1.0000E+00  5.0000E+00  0.3000E+00  0.2000E+00  0.1500E+00  3.5000E+00  3.0000E-01
     2    54    73    17       2   9.0000E+01  2.0290E+03  1.3333E-01  1.0000E+00  5.0000E+00  0.3000E+00  0.2000E+00  0.1500E+00  3.5000E+00  3.0000E-01
     2    53    73    17       3   9.0000E+01  2.0170E+03  1.0556E-01  1.0000E+00  5.0000E+00  0.3000E+00  0.2000E+00  0.1500E+00  3.5000E+00  3.0000E-01
     2    52    73    17       4   1.0864E+02  2.0100E+03  8.7445E-02  1.0000E+00  5.0000E+00  0.3000E+00  0.2000E+00  0.1500E+00  3.5000E+00  3.0000E-01
     2    51    72    17       5   1.0864E+02  1.9980E+03  7.8240E-02  1.0000E+00  5.0000E+00  0.3000E+00  0.2000E+00  0.1500E+00  3.5000E+00  3.0000E-01
     2    50    72    17       6   9.0000E+01  1.9750E+03  6.6667E-02  1.0000E+00  5.0000E+00  0.3000E+00  0.2000E+00  0.1500E+00  3.5000E+00  3.0000E-01
     2    49    72    17       7   9.0000E+01  1.9560E+03  7.7778E-02  1.0000E+00  0.0000E+00  0.3000E+00  0.2000E+00  0.1500E+00  3.5000E+00  3.0000E-01
     2    48    72    17       8   9.0000E+01  1.9520E+03  7.7778E-02  1.0000E+00  0.0000E+00  0.3000E+00  0.2000E+00  0.1500E+00  3.5000E+00  3.0000E-01
     2    47    72    17       9   9.0000E+01  1.9500E+03  7.2222E-02  1.0000E+00  0.0000E+00  0.3000E+00  0.2000E+00  0.1500E+00  3.5000E+00  3.0000E-01
     2    46    72    17      10   9.0000E+01  1.9480E+03  6.6667E-02  1.0000E+00  0.0000E+00  0.3000E+00  0.2000E+00  0.1500E+00  3.5000E+00  3.0000E-01
     2    45    72    17      11   1.0864E+02  1.9440E+03  6.4433E-02  1.0000E+00  0.0000E+00  0.3000E+00  0.2000E+00  0.1500E+00  3.5000E+00  3.0000E-01
     2    44    73    17      12   1.0864E+02  1.9420E+03  5.9831E-02  1.0000E+00  0.0000E+00  0.3000E+00  0.2000E+00  0.1500E+00  3.5000E+00  3.0000E-01
     2    43    73    17      13   9.0000E+01  1.9420E+03  4.4444E-02  1.0000E+00  0.0000E+00  0.3000E+00  0.2000E+00  0.1500E+00  3.5000E+00  3.0000E-01
     2    42    73    17      14   1.0864E+02  1.9410E+03  4.1421E-02  1.0000E+00  0.0000E+00  0.3000E+00  0.2000E+00  0.1500E+00  3.5000E+00  3.0000E-01
     2    34    45    18       1   1.0864E+02  2.0179E+03  3.6819E-02  1.0000E+00  5.0000E+00  0.3000E+00  0.2000E+00  0.1500E+00  3.5000E+00  3.0000E-01
     2    34    46    18       2   9.0000E+01  2.0110E+03  5.0000E-02  1.0000E+00  5.0000E+00  0.3000E+00  0.2000E+00  0.1500E+00  3.5000E+00  3.0000E-01
     2    34    47    18       3   4.5000E+01  2.0070E+03  1.1111E-01  1.0000E+00  5.0000E+00  0.3000E+00  0.2000E+00  0.1500E+00  3.5000E+00  3.0000E-01
     2    41    74    19       1   1.2728E+02  1.9380E+03  3.9284E-02  1.0000E+00  5.0000E+00  0.3000E+00  0.2000E+00  0.1500E+00  3.5000E+00  3.0000E-01
     2    40    75    19       2   6.3640E+01  1.9340E+03  3.9284E-02  1.0000E+00  5.0000E+00  0.3000E+00  0.2000E+00  0.1500E+00  3.5000E+00  3.0000E-01
     2    39    66    20       1   1.0864E+02  1.9625E+03  4.6024E-03  1.0000E+00  5.0000E+00  0.3000E+00  0.2000E+00  0.1500E+00  3.5000E+00  3.0000E-01
     2    39    67    20       2   9.0000E+01  1.9622E+03  2.7778E-03  1.0000E+00  5.0000E+00  0.3000E+00  0.2000E+00  0.1500E+00  3.5000E+00  3.0000E-01
     2    40    68    20       3   1.2728E+02  1.9620E+03  1.9642E-03  1.0000E+00  5.0000E+00  0.3000E+00  0.2000E+00  0.1500E+00  3.5000E+00  3.0000E-01
     2    41    69    20       4   1.0864E+02  1.9618E+03  2.3012E-03  1.0000E+00  5.0000E+00  0.3000E+00  0.2000E+00  0.1500E+00  3.5000E+00  3.0000E-01
     2    42    69    20       5   1.0864E+02  1.9615E+03  2.3012E-03  1.0000E+00  5.0000E+00  0.3000E+00  0.2000E+00  0.2100E+00  3.5000E+00  3.0000E-01
     2    43    70    20       6   1.0864E+02  1.9612E+03  2.3012E-03  1.0000E+00  5.0000E+00  0.3000E+00  0.2000E+00  0.1500E+00  3.5000E+00  3.0000E-01
     2    38    66    21       1   9.0000E+01  1.9600E+03  2.7778E-02  1.0000E+00  5.0000E+00  0.3000E+00  0.2000E+00  0.1500E+00  3.5000E+00  3.0000E-01
     2    38    67    21       2   1.0864E+02  1.9580E+03  3.2217E-02  1.0000E+00  5.0000E+00  0.3000E+00  0.2000E+00  0.1500E+00  3.5000E+00  3.0000E-01
     2    39    68    21       3   1.0864E+02  1.9530E+03  4.6024E-02  1.0000E+00  5.0000E+00  0.3000E+00  0.2000E+00  0.1500E+00  3.5000E+00  3.0000E-01
     2    39    69    21       4   9.0000E+01  1.9480E+03  3.8889E-02  1.0000E+00  5.0000E+00  0.3000E+00  0.2000E+00  0.1500E+00  3.5000E+00  3.0000E-01
     2    39    70    21       5   4.5000E+01  1.9460E+03  6.6667E-02  1.0000E+00  5.0000E+00  0.3000E+00  0.2000E+00  0.1500E+00  3.5000E+00  3.0000E-01
     2    38    71    22       1   1.0864E+02  1.9455E+03  4.6024E-03  1.0000E+00  1.0000E+00  0.3000E+00  0.2000E+00  0.1500E+00  3.5000E+00  3.0000E-01
     2    38    72    22       2   1.0864E+02  1.9450E+03  4.6024E-03  1.0000E+00  1.0000E+00  0.3000E+00  0.2000E+00  0.2100E+00  3.5000E+00  3.0000E-01
     2    39    73    22       3   1.0864E+02  1.9445E+03  4.6024E-03  1.0000E+00  1.0000E+00  0.3000E+00  0.2000E+00  0.1500E+00  3.5000E+00  3.0000E-01
     2    39    74    22       4   9.0000E+01  1.9440E+03  5.5556E-03  1.0000E+00  1.0000E+00  0.3000E+00  0.2000E+00  0.2200E+00  3.5000E+00  3.0000E-01
     2    39    75    22       5   9.0000E+01  1.9435E+03  5.5556E-03  1.0000E+00  1.0000E+00  0.3000E+00  0.2000E+00  0.2200E+00  3.5000E+00  3.0000E-01
     **WARNING** CELL BENEATH STREAM REACH IS INACTIVE
     CELL BELOW MUST HAVE THE SAME SPECIFIC YIELD
     AND THE TOP ELEVATION OF ACTIVE CELL MUST EQUAL BOTTOM OF INACTIVE CELL
     INACTIVE CELL IS BELOW STREAM REACH AND SEGMENT:    6   22
     2    39    76    22       6   9.0000E+01  1.9430E+03  5.5556E-03  1.0000E+00  1.0000E+00  0.3000E+00  0.2000E+00  0.1500E+00  3.5000E+00  3.0000E-01
     2    39    71    23       1   1.0864E+02  1.9420E+03  2.3012E-02  1.0000E+00  5.0000E+00  0.3000E+00  0.2000E+00  0.1500E+00  3.5000E+00  3.0000E-01
     2    40    72    23       2   1.0864E+02  1.9410E+03  1.8409E-02  1.0000E+00  5.0000E+00  0.3000E+00  0.2000E+00  0.1500E+00  3.5000E+00  3.0000E-01
     2    40    73    23       3   9.0000E+01  1.9380E+03  2.7778E-02  1.0000E+00  5.0000E+00  0.3000E+00  0.2000E+00  0.1500E+00  3.5000E+00  3.0000E-01
     2    40    74    23       4   9.0000E+01  1.9360E+03  2.2222E-02  1.0000E+00  5.0000E+00  0.3000E+00  0.2000E+00  0.1500E+00  3.5000E+00  3.0000E-01
     2    40    75    23       5   4.5000E+01  1.9340E+03  3.3333E-02  1.0000E+00  5.0000E+00  0.3000E+00  0.2000E+00  0.1500E+00  3.5000E+00  3.0000E-01
 INITIAL WATER CONTENT IS LESS THAN RESIDUAL WATER CONTENT FOR STREAM SEGMENT:    20 REACH:     5 INITIAL WATER CONTENT RESET TO RESIDUAL OF  0.21000E+00
 INITIAL WATER CONTENT IS LESS THAN RESIDUAL WATER CONTENT FOR STREAM SEGMENT:    22 REACH:     2 INITIAL WATER CONTENT RESET TO RESIDUAL OF  0.21000E+00
 INITIAL WATER CONTENT IS LESS THAN RESIDUAL WATER CONTENT FOR STREAM SEGMENT:    22 REACH:     4 INITIAL WATER CONTENT RESET TO RESIDUAL OF  0.22000E+00
 INITIAL WATER CONTENT IS LESS THAN RESIDUAL WATER CONTENT FOR STREAM SEGMENT:    22 REACH:     5 INITIAL WATER CONTENT RESET TO RESIDUAL OF  0.22000E+00

 *** WARNING *** STREAM SEGMENT   16 REACH NO.    2 IS CONNECTED TO A CONSTANT HEAD CELL.
 IBOUND ARRAY VALUE IS   -1 AT LAYER    2; ROW   40; COLUMN   76.
 NO STREAM LEAKAGE WILL BE ALLOWED-- SUGGEST REMOVING STREAM REACH FROM CELL OR CHANGE CELL TO VARIABLE HEAD.


 *** WARNING *** STREAM SEGMENT   22 REACH NO.    6 IS CONNECTED TO A CONSTANT HEAD CELL.
 IBOUND ARRAY VALUE IS   -1 AT LAYER    2; ROW   39; COLUMN   76.
 NO STREAM LEAKAGE WILL BE ALLOWED-- SUGGEST REMOVING STREAM REACH FROM CELL OR CHANGE CELL TO VARIABLE HEAD.





 UZF1 -- UNSATURATED FLOW PACKAGE, VERSION 1.5, 09/10/2019
         INPUT READ FROM UNIT 14
 #Sagehen-GRID Simulation -- Example problem for GSFLOW
 No named parameters

 PROCESSING UZF OPTIONS
 
 
HYDRAULIC CONDUCTIVITY OF LAND SURFACE 
WILL BE READ
 
 
SURFACE LEAKAGE WILL BE CALCULATED 
USING LAND SURFACE K
 

 END PROCESSING UZF OPTIONS
 # NUZTOP IUZFOPT IRUNFLG IETFLG IUZFCB1 IUZFCB2 NTRAIL NSETS NUZGAGES SURFDEP



            AREAL EXTENT OF UZ FLOW
 READING ON UNIT   14 WITH FORMAT: (FREE)              

                1           2           3           4           5           6           7           8           9          10
               11          12          13          14          15          16          17          18          19          20
               21          22          23          24          25          26          27          28          29          30
               31          32          33          34          35          36          37          38          39          40
               41          42          43          44          45          46          47          48          49          50
               51          52          53          54          55          56          57          58          59          60
               61          62          63          64          65          66          67          68          69          70
               71          72          73          74          75          76          77          78          79
 ............................................................................................................................
   1            0           0           0           0           0           0           0           0           0           0
                0           0           0           0           0           0           0           0           0           0
                0           0           0           0           0           0           0           0           0           0
                0           0           0           0           0           0           0           0           0           0
                0           0           0           0           0           0           0           0           0           0
                0           2           2           0           0           0           0           0           0           0
                0           0           0           0           0           0           0           0           0           0
                0           0           0           0           0           0           0           0           0
   2            0           0           0           0           0           0           0           0           0           0
                0           0           0           0           0           0           0           0           0           0
                0           0           0           0           0           0           0           0           0           0
                0           0           0           0           0           0           0           0           0           0
                0           0           0           0           0           0           0           0           0           0
                0           2           2           2           0           0           0           0           0           0
                0           0           0           0           0           0           0           0           0           0
                0           0           0           0           0           0           0           0           0
   3            0           0           0           0           0           0           0           0           0           0
                0           0           0           0           0           0           0           0           0           0
                0           0           0           0           0           0           0           0           0           0
                0           0           0           0           0           0           0           0           0           0
                0           0           0           0           0           0           0           0           0           0
                0           2           2           2           0           0           0           0           0           0
                0           0           0           0           0           0           0           0           0           0
                0           0           0           0           0           0           0           0           0
   4            0           0           0           0           0           0           0           0           0           0
                0           0           0           0           0           0           0           0           0           0
                0           0           0           0           0           0           0           0           0           0
                0           0           0           0           0           0           0           0           0           0
                0           0           0           0           0           0           0           0           0           0
                0           2           2           2           2           0           0           0           0           0
                0           0           0           0           0           0           0           0           0           0
                0           0           0           0           0           0           0           0           0
   5            0           0           0           0           0           0           0           0           0           0
                0           0           0           0           0           0           0           0           0           0
                0           0           0           0           0           0           0           0           0           0
                0           0           0           0           0           0           0           0           0           0
                0           0           0           0           0           0           0           0           0           0
                0           2           2           2           2           2           2           0           0           0
                0           0           0           0           0           0           0           0           0           0
                0           0           0           0           0           0           0           0           0
   6            0           0           0           0           0           0           0           0           0           0
                0           0           0           0           0           0           0           0           0           0
                0           0           0           0           0           0           0           0           0           0
                0           0           0           0           0           0           0           0           0           0
                0           0           0           0           0           0           0           0           0           0
                0           2           2           2           2           2           2           2           2           0
                0           0           0           2           2           0           0           0           0           0
                0           0           0           0           0           0           0           0           0
   7            0           0           0           0           0           0           0           0           0           0
                0           0           0           0           0           0           0           0           0           0
                0           0           0           0           0           0           0           0           0           0
                0           0           0           0           0           0           0           0           0           0
                0           0           0           0           0           0           0           0           0           0
                0           2           2           2           2           2           2           2           2           2
                2           2           2           2           2           2           0           0           0           0
                0           0           0           0           0           0           0           0           0
   8            0           0           0           0           0           0           0           0           0           0
                0           0           0           0           0           0           0           0           0           0
                0           0           0           0           0           0           0           0           0           0
                0           0           0           0           0           0           0           0           0           0
                0           0           0           0           0           0           0           0           0           0
                0           2           2           2           2           2           2           2           2           2
                2           2           2           2           2           2           2           2           0           0
                0           0           0           0           0           0           0           0           0
   9            0           0           0           0           0           0           0           0           0           0
                0           0           0           0           0           0           0           0           0           0
                0           0           0           0           0           0           0           0           0           0
                0           0           0           0           0           0           0           0           0           0
                0           0           0           0           0           0           0           0           0           0
                2           2           2           2           2           2           2           2           2           2
                2           2           2           2           2           2           2           2           2           0
                0           0           0           0           0           0           0           0           0
  10            0           0           0           0           0           0           0           0           0           0
                0           0           0           0           0           0           0           0           0           0
                0           0           0           0           0           0           0           0           0           0
                0           0           0           0           0           0           0           0           0           0
                0           0           0           0           0           0           0           0           0           2
                2           2           2           2           2           2           2           2           2           2
                2           2           2           2           2           2           2           2           2           2
                0           0           0           0           0           0           0           0           0
  11            0           0           0           0           0           0           0           0           0           0
                0           0           0           0           0           0           0           0           0           0
                0           0           0           0           0           0           0           0           0           0
                0           0           0           0           0           0           0           0           0           0
                0           0           0           0           0           0           0           0           2           2
                2           2           2           2           2           2           2           2           2           2
                2           2           2           2           2           2           2           2           2           2
                2           0           0           0           0           0           0           0           0
  12            0           0           0           0           0           0           0           0           0           0
                0           0           0           0           0           0           0           0           0           0
                0           0           0           0           0           0           0           0           0           0
                0           0           0           0           0           0           0           0           0           0
                0           2           2           0           0           0           0           2           2           2
                2           2           2           2           2           2           2           2           2           2
                2           2           2           2           2           2           2           2           2           2
                2           0           0           0           0           0           0           0           0
  13            0           0           0           0           0           0           0           0           0           0
                0           0           0           0           0           0           0           0           0           0
                0           0           0           0           0           0           0           0           0           0
                0           0           0           0           0           0           0           0           2           2
                2           2           2           2           2           2           2           2           2           2
                2           2           2           2           2           2           2           2           2           2
                2           2           2           2           2           2           2           2           2           2
                2           2           0           0           0           0           0           0           0
  14            0           0           0           0           0           0           0           0           0           0
                0           0           0           0           0           0           0           0           0           0
                0           0           0           0           0           0           0           0           0           0
                0           0           0           0           0           0           0           0           2           2
                2           2           2           2           2           2           2           2           2           2
                2           2           2           2           2           2           2           2           2           2
                2           2           2           2           2           2           2           2           2           2
                2           2           2           0           0           0           0           0           0
  15            0           0           0           0           0           0           0           0           0           0
                0           0           0           0           0           0           0           0           0           0
                0           0           0           0           0           0           0           0           0           0
                0           0           0           0           0           0           0           2           2           2
                2           2           2           2           2           2           2           2           2           2
                2           2           2           2           2           2           2           2           2           2
                2           2           2           2           2           2           2           2           2           2
                2           2           2           0           0           0           0           0           0
  16            0           0           0           0           0           0           0           0           0           0
                0           0           0           0           0           0           0           0           0           0
                0           0           0           0           0           0           0           0           0           0
                0           0           0           0           0           0           2           2           2           2
                2           2           2           2           2           2           2           2           2           2
                2           2           2           2           2           2           2           2           2           2
                2           2           2           2           2           2           2           2           2           2
                2           2           2           2           0           0           0           0           0
  17            0           0           0           0           0           0           0           0           0           0
                0           0           0           0           0           0           0           0           0           0
                0           0           0           0           0           0           0           0           0           0
                0           0           0           0           0           2           2           2           2           2
                2           2           2           2           2           2           2           2           2           2
                2           2           2           2           2           2           2           2           2           2
                2           2           2           2           2           2           2           2           2           2
                2           2           2           2           0           0           0           0           0
  18            0           0           0           0           0           0           0           0           0           0
                0           0           0           0           0           0           0           0           0           0
                0           0           0           0           0           0           0           0           0           0
                0           0           0           0           2           2           2           2           2           2
                2           2           2           2           2           2           2           2           2           2
                2           2           2           2           2           2           2           2           2           2
                2           2           2           2           2           2           2           2           2           2
                2           2           2           2           0           0           0           0           0
  19            0           0           0           0           0           0           0           0           0           0
                0           0           0           0           0           0           0           0           0           0
                0           0           0           0           0           0           0           0           0           0
                0           0           0           2           2           2           2           2           2           2
                2           2           2           2           2           2           2           2           2           2
                2           2           2           2           2           2           2           2           2           2
                2           2           2           2           2           2           2           2           2           2
                2           2           2           2           0           0           0           0           0
  20            0           0           0           0           0           0           0           0           0           0
                0           0           0           0           0           0           0           0           0           0
                0           0           0           0           0           0           0           0           0           0
                0           0           0           2           2           2           2           2           2           2
                2           2           2           2           2           2           2           2           2           2
                2           2           2           2           2           2           2           2           2           2
                2           2           2           2           2           2           2           2           2           2
                2           2           2           2           0           0           0           0           0
  21            0           0           0           0           0           0           0           0           0           0
                0           0           0           0           0           0           0           0           0           0
                0           0           0           0           0           0           0           0           0           0
                0           0           2           2           2           2           2           2           2           2
                2           2           2           2           2           2           2           2           2           2
                2           2           2           2           2           2           2           2           2           2
                2           2           2           2           2           2           2           2           2           2
                2           2           2           2           2           0           0           0           0
  22            0           0           0           0           0           0           0           0           0           0
                0           0           0           0           0           0           0           0           0           0
                0           0           0           0           0           0           0           0           0           0
                0           0           2           2           2           2           2           2           2           2
                2           2           2           2           2           2           2           2           2           2
                2           2           2           2           2           2           2           2           2           2
                2           2           2           2           2           2           2           2           2           2
                2           2           2           2           0           0           0           0           0
  23            0           0           0           0           0           0           0           0           0           0
                0           0           0           0           0           0           0           0           0           0
                0           0           0           0           0           0           0           0           0           0
                0           2           2           2           2           2           2           2           2           2
                2           2           2           2           2           2           2           2           2           2
                2           2           2           2           2           2           2           2           2           2
                2           2           2           2           2           2           2           2           2           2
                2           0           0           0           0           0           0           0           0
  24            0           0           0           0           0           0           0           0           0           0
                0           0           0           0           0           0           0           0           0           0
                0           0           0           0           0           0           0           0           2           2
                2           2           2           2           2           2           2           2           2           2
                2           2           2           2           2           2           2           2           2           2
                2           2           2           2           2           2           2           2           2           2
                2           2           2           2           2           2           2           2           2           2
                2           0           0           0           0           0           0           0           0
  25            0           0           0           0           0           0           0           0           0           0
                0           0           0           0           0           0           0           0           0           0
                0           0           0           0           0           0           0           2           2           2
                2           2           2           2           2           2           2           2           2           2
                2           2           2           2           2           2           2           2           2           2
                2           2           2           2           2           2           2           2           2           2
                2           2           2           2           2           2           2           2           2           2
                2           0           0           0           0           0           0           0           0
  26            0           0           0           0           0           0           0           0           0           0
                0           0           0           0           0           0           0           0           0           0
                0           0           0           0           0           2           2           2           2           2
                2           2           2           2           2           2           2           2           2           2
                2           2           2           2           2           2           2           2           2           2
                2           2           2           2           2           2           2           2           2           2
                2           2           2           2           2           2           2           2           2           2
                2           0           0           0           0           0           0           0           0
  27            0           0           0           0           0           0           0           0           0           0
                0           0           0           0           0           0           0           0           0           0
                0           0           0           0           2           2           2           2           2           2
                2           2           2           2           2           2           2           2           2           2
                2           2           2           2           2           2           2           2           2           2
                2           2           2           2           2           2           2           2           2           2
                2           2           2           2           2           2           2           2           2           2
                2           0           0           0           0           0           0           0           0
  28            0           0           0           0           0           0           0           0           0           0
                0           0           0           0           0           0           0           0           0           0
                0           0           0           2           2           2           2           2           2           2
                2           2           2           2           2           2           2           2           2           2
                2           2           2           2           2           2           2           2           2           2
                2           2           2           2           2           2           2           2           2           2
                2           2           2           2           2           2           2           2           2           2
                2           2           0           0           0           0           0           0           0
  29            0           0           0           0           0           0           0           0           0           0
                0           0           0           0           0           0           0           0           0           0
                0           2           2           2           2           2           2           2           2           2
                2           2           2           2           2           2           2           2           2           2
                2           0           0           0           2           2           2           2           2           2
                2           2           2           2           2           2           2           2           2           2
                2           2           2           2           2           2           2           2           2           2
                2           2           0           0           0           0           0           0           0
  30            0           0           0           0           0           0           0           0           0           0
                0           0           0           0           0           0           0           0           0           2
                2           2           2           2           2           2           2           2           2           2
                2           2           2           2           2           2           2           2           2           0
                0           0           0           0           2           2           2           2           2           2
                2           2           2           2           2           2           2           2           2           2
                2           2           2           2           2           2           2           2           2           2
                2           2           0           0           0           0           0           0           0
  31            0           0           0           0           0           0           0           0           0           0
                0           0           0           0           0           0           0           0           2           2
                2           2           2           2           2           2           2           2           2           2
                2           2           2           2           2           2           2           2           0           0
                0           0           0           0           2           2           2           2           2           2
                2           2           2           2           2           2           2           2           2           2
                2           2           2           2           2           2           2           2           2           2
                2           2           0           0           0           0           0           0           0
  32            0           0           0           0           0           0           0           0           0           0
                0           0           0           0           0           0           2           2           2           2
                2           2           2           2           2           2           2           2           2           2
                2           2           2           2           2           2           2           0           0           0
                0           0           0           0           2           2           2           2           2           2
                2           2           2           2           2           2           2           2           2           2
                2           2           2           2           2           2           2           2           2           2
                2           2           0           0           0           0           0           0           0
  33            0           0           0           0           0           0           0           0           0           0
                0           0           0           0           0           2           2           2           2           2
                2           2           2           2           2           2           2           2           2           2
                2           2           2           2           2           2           2           0           0           0
                0           0           0           0           2           2           2           2           2           2
                2           2           2           2           2           2           2           2           2           2
                2           2           2           2           2           2           2           2           2           2
                2           2           2           0           0           0           0           0           0
  34            0           0           0           0           0           0           0           0           0           0
                0           0           0           0           2           2           2           2           2           2
                2           2           2           2           2           2           2           2           2           2
                2           2           2           2           2           2           2           0           0           0
                0           0           0           0           2           2           2           2           2           2
                2           2           2           2           2           2           2           2           2           2
                2           2           2           2           2           2           2           2           2           2
                2           2           2           0           0           0           0           0           0
  35            0           0           0           0           0           0           0           0           0           0
                0           0           0           2           2           2           2           2           2           2
                2           2           2           2           2           2           2           2           2           2
                2           2           2           2           2           2           2           2           2           2
                2           2           0           0           2           2           2           2           2           2
                2           2           2           2           2           2           2           2           2           2
                2           2           2           2           2           2           2           2           2           2
                2           2           2           2           0           0           0           0           0
  36            0           0           0           0           0           0           0           0           0           0
                0           0           0           2           2           2           2           2           2           2
                2           2           2           2           2           2           2           2           2           2
                2           2           2           2           2           2           2           2           2           2
                2           2           2           2           2           2           2           2           2           2
                2           2           2           2           2           2           2           2           2           2
                2           2           2           2           2           2           2           2           2           2
                2           2           2           2           2           0           0           0           0
  37            0           0           0           0           0           0           0           0           0           0
                0           0           2           2           2           2           2           2           2           2
                2           2           2           2           2           2           2           2           2           2
                2           2           2           2           2           2           2           2           2           2
                2           2           2           2           2           2           2           2           2           2
                2           2           2           2           2           2           2           2           2           2
                2           2           2           2           2           2           2           2           2           2
                2           2           2           2           2           0           0           0           0
  38            0           0           0           0           0           0           0           0           0           0
                2           2           2           2           2           2           2           2           2           2
                2           2           2           2           2           2           2           2           2           2
                2           2           2           2           2           2           2           2           2           2
                2           2           2           2           2           2           2           2           2           2
                2           2           2           2           2           2           2           2           2           2
                2           2           2           2           2           2           2           2           2           2
                2           2           2           2           2           2           0           0           0
  39            0           0           0           0           0           0           0           2           2           2
                2           2           2           2           2           2           2           2           2           2
                2           2           2           2           2           2           2           2           2           2
                2           2           2           2           2           2           2           2           2           2
                2           2           2           2           2           2           2           2           2           2
                2           2           2           2           2           2           2           2           2           2
                2           2           2           2           2           2           2           2           2           2
                2           2           2           2           2          -2           0           0           0
  40            0           0           0           0           0           0           2           2           2           2
                2           2           2           2           2           2           2           2           2           2
                2           2           2           2           2           2           2           2           2           2
                2           2           2           2           2           2           2           2           2           2
                2           2           2           2           2           2           2           2           2           2
                2           2           2           2           2           2           2           2           2           2
                2           2           2           2           2           2           2           2           2           2
                2           2           2           2           2          -2           0           0           0
  41            0           0           0           0           0           2           2           2           2           2
                2           2           2           2           2           2           2           2           2           2
                2           2           2           2           2           2           2           2           2           2
                2           2           2           2           2           2           2           2           2           2
                2           2           2           2           2           2           2           2           2           2
                2           2           2           2           2           2           2           2           2           2
                2           2           2           2           2           2           2           2           2           2
                2           2           2           2           2           0           0           0           0
  42            0           0           0           0           0           2           2           2           2           2
                2           2           2           2           2           2           2           2           2           2
                2           2           2           2           2           2           2           2           2           2
                2           2           2           2           2           2           2           2           2           2
                2           2           2           2           2           2           2           2           2           2
                2           2           2           2           2           2           2           2           2           2
                2           2           2           2           2           2           2           2           2           2
                0           0           0           0           2           0           0           0           0
  43            0           0           0           0           0           2           2           2           2           2
                2           2           2           2           2           2           2           2           2           2
                2           2           2           2           2           2           2           2           2           2
                2           2           2           2           2           2           2           2           2           2
                2           2           2           2           2           2           2           2           2           2
                2           2           2           2           2           2           2           2           2           2
                2           2           2           2           2           2           2           2           2           2
                0           0           0           0           2           0           0           0           0
  44            0           0           0           0           0           2           2           2           2           2
                2           2           2           2           2           2           2           2           2           2
                2           2           2           2           2           2           2           2           2           2
                2           2           2           2           2           2           2           2           2           2
                2           2           2           2           2           2           2           2           2           2
                2           2           2           2           2           2           2           2           2           2
                2           2           2           2           2           2           2           0           0           0
                0           0           0           0           2           0           0           0           0
  45            0           0           0           2           2           2           2           2           2           2
                2           2           2           2           2           2           2           2           2           2
                2           2           2           2           2           2           2           2           2           2
                2           2           2           2           2           2           2           2           2           2
                2           2           2           2           2           2           2           2           2           2
                2           2           2           2           2           2           2           2           2           2
                2           2           2           2           2           2           2           2           0           0
                0           0           0           0           2           0           0           0           0
  46            0           0           0           2           2           2           2           2           2           2
                2           2           2           2           2           2           2           2           2           2
                2           2           2           2           2           2           2           2           2           2
                2           2           2           2           2           2           2           2           2           2
                2           2           2           2           2           2           2           2           2           2
                2           2           2           2           2           2           2           2           2           2
                2           2           2           2           2           2           2           2           0           0
                0           0           0           2           2           0           0           0           0
  47            0           0           0           2           2           2           2           2           2           2
                2           2           2           2           2           2           2           2           2           2
                2           2           2           2           2           2           2           2           2           2
                2           2           2           2           2           2           2           2           2           2
                2           2           2           2           2           2           2           2           2           2
                2           2           2           2           2           2           2           2           2           2
                2           2           2           2           2           2           2           2           0           0
                0           0           0           2           2           0           0           0           0
  48            0           0           0           2           2           2           2           2           2           2
                2           2           2           2           2           2           2           2           2           2
                2           2           2           2           2           2           2           2           2           2
                2           2           2           2           2           2           2           2           2           2
                2           2           2           2           2           2           2           2           2           2
                2           2           2           2           2           2           2           2           2           2
                2           2           2           2           2           2           2           2           2           0
                0           0           0           2           2           2           0           0           0
  49            0           0           0           2           2           2           2           2           2           2
                2           2           2           2           2           2           2           2           2           2
                2           2           2           2           2           2           2           2           2           2
                2           2           2           2           2           2           2           2           2           2
                2           2           2           2           2           2           2           2           2           2
                2           2           2           2           2           2           2           2           2           2
                2           2           2           2           2           2           2           2           2           2
                0           0           0           2           2           2           0           0           0
  50            0           0           0           2           2           2           2           2           2           2
                2           2           2           2           2           2           2           2           2           2
                2           2           2           2           2           2           2           2           2           2
                2           2           2           2           2           2           2           2           2           2
                2           2           2           2           2           2           2           2           2           2
                2           2           2           2           2           2           2           2           2           2
                2           2           2           2           2           2           2           2           2           2
                2           2           2           2           2           2           0           0           0
  51            0           0           0           2           2           2           2           2           2           2
                2           2           2           2           2           2           2           2           2           2
                2           2           2           2           2           2           2           2           2           2
                2           2           2           2           2           2           2           2           2           2
                2           2           2           2           2           2           2           2           2           2
                2           2           2           2           2           2           2           2           2           2
                2           2           2           2           2           2           2           2           2           2
                2           2           2           2           2           2           0           0           0
  52            0           0           2           2           2           2           2           2           2           2
                2           2           2           2           2           2           2           2           2           2
                2           2           2           2           2           2           2           2           2           2
                2           2           2           2           2           2           2           2           2           2
                2           2           2           2           2           2           2           2           2           2
                2           2           2           2           2           2           2           2           2           2
                2           2           2           2           2           2           2           2           2           2
                2           2           2           2           2           2           0           0           0
  53            0           0           2           2           2           2           2           2           2           2
                2           2           2           2           2           2           2           2           2           2
                2           2           2           2           2           2           2           2           2           2
                2           2           2           2           2           2           2           2           2           2
                2           2           2           2           2           2           2           2           2           2
                2           2           2           2           2           2           2           2           2           2
                2           2           2           2           2           2           2           2           2           2
                2           2           2           2           2           2           2           0           0
  54            0           0           2           2           2           2           2           2           2           2
                2           2           2           2           2           2           2           2           2           2
                2           2           2           2           2           2           2           2           2           2
                2           2           2           2           2           2           2           2           2           2
                2           2           2           2           2           2           2           2           2           2
                2           2           2           2           2           2           2           2           2           2
                2           2           2           2           2           2           2           2           2           2
                2           2           2           2           2           2           2           0           0
  55            0           2           2           2           2           2           2           2           2           2
                2           2           2           2           2           2           2           2           2           2
                2           2           2           2           2           2           2           2           2           2
                2           2           2           2           2           2           2           2           2           2
                2           2           2           2           2           2           2           2           2           2
                2           2           2           2           2           2           2           2           2           2
                2           2           2           2           2           2           2           2           2           2
                2           2           2           2           2           2           2           0           0
  56            0           2           2           2           2           2           2           2           2           2
                2           2           2           2           2           2           2           2           2           2
                2           2           2           2           2           2           2           2           2           2
                2           2           2           2           2           2           2           2           2           2
                2           2           2           2           2           2           2           2           2           2
                2           2           2           2           2           2           2           2           2           2
                2           2           2           2           2           2           2           2           2           2
                2           2           2           2           2           2           2           0           0
  57            2           2           2           2           2           2           2           2           2           2
                2           2           2           2           2           2           2           2           2           2
                2           2           2           2           2           2           2           2           2           2
                2           2           2           2           2           2           2           2           2           2
                2           2           2           2           2           2           2           2           2           2
                2           2           2           2           2           2           2           2           2           2
                2           2           2           2           2           2           2           2           2           2
                2           2           2           2           2           2           2           0           0
  58            2           2           2           2           2           2           2           2           2           2
                2           2           2           2           2           2           2           2           2           2
                2           2           2           2           2           2           2           2           2           2
                2           2           2           2           2           2           2           2           2           2
                2           2           2           2           2           2           2           2           2           2
                2           2           2           2           2           2           2           2           2           2
                2           2           2           2           2           2           2           2           2           2
                2           2           2           2           2           2           2           0           0
  59            2           2           2           2           2           2           2           2           2           2
                2           2           2           2           2           2           2           2           2           2
                2           2           2           2           2           2           2           2           2           2
                2           2           2           2           2           2           2           2           2           2
                2           2           2           2           2           2           2           2           2           2
                2           2           2           2           2           2           2           2           2           2
                2           2           2           2           2           2           2           2           2           2
                2           2           2           2           2           2           2           2           0
  60            0           2           2           2           2           2           2           2           2           2
                2           2           2           0           0           0           2           2           2           2
                2           2           2           2           2           2           2           2           2           2
                2           2           2           2           2           2           2           2           2           2
                2           2           2           2           2           2           2           2           2           2
                2           2           2           2           2           2           2           2           2           2
                2           2           2           2           2           2           2           2           2           2
                2           2           2           2           2           2           2           2           2
  61            0           0           2           2           2           2           2           2           2           2
                2           0           0           0           0           0           0           2           2           2
                2           2           2           2           2           2           2           2           2           2
                2           2           2           2           2           2           2           2           2           2
                2           2           2           2           2           2           2           2           2           2
                2           2           2           2           2           2           2           2           2           2
                2           2           2           2           2           2           2           2           2           2
                2           2           2           2           2           2           2           2           2
  62            0           0           0           2           0           0           0           0           0           0
                0           0           0           0           0           0           0           0           0           2
                2           2           2           2           2           2           2           2           2           2
                2           2           2           2           2           2           2           2           2           2
                2           2           2           2           2           2           2           2           2           2
                2           2           2           2           2           2           2           2           2           2
                2           2           2           2           2           2           2           2           2           2
                2           2           2           2           2           2           2           2           2
  63            0           0           0           0           0           0           0           0           0           0
                0           0           0           0           0           0           0           0           0           2
                2           2           2           2           2           2           2           2           2           2
                2           2           2           2           2           2           2           2           2           2
                2           2           2           2           2           2           2           2           2           2
                2           2           2           2           2           2           2           2           2           2
                2           2           2           2           2           2           2           2           2           2
                2           2           2           2           2           2           2           2           2
  64            0           0           0           0           0           0           0           0           0           0
                0           0           0           0           0           0           0           0           0           0
                0           0           0           0           2           2           2           2           2           2
                2           2           2           2           2           2           2           2           2           2
                2           2           2           2           2           2           2           2           2           2
                2           2           2           2           2           2           2           2           2           2
                2           2           2           2           2           2           2           2           2           2
                2           2           2           2           2           2           2           2           2
  65            0           0           0           0           0           0           0           0           0           0
                0           0           0           0           0           0           0           0           0           0
                0           0           0           0           0           0           0           0           0           0
                0           0           0           2           2           2           2           2           2           2
                2           2           2           2           2           0           0           0           0           2
                2           2           2           2           2           2           2           2           2           2
                2           2           2           2           2           2           2           2           2           2
                2           2           2           2           2           2           2           2           2
  66            0           0           0           0           0           0           0           0           0           0
                0           0           0           0           0           0           0           0           0           0
                0           0           0           0           0           0           0           0           0           0
                0           0           0           0           0           2           2           0           0           0
                0           0           0           0           0           0           0           0           0           0
                2           2           2           2           2           2           2           2           2           2
                2           2           2           2           2           2           2           2           2           2
                2           2           2           2           2           2           2           2           2
  67            0           0           0           0           0           0           0           0           0           0
                0           0           0           0           0           0           0           0           0           0
                0           0           0           0           0           0           0           0           0           0
                0           0           0           0           0           0           0           0           0           0
                0           0           0           0           0           0           0           0           0           0
                0           0           2           2           2           2           2           2           2           2
                2           2           2           2           2           2           2           2           2           2
                2           0           0           0           0           0           0           0           0
  68            0           0           0           0           0           0           0           0           0           0
                0           0           0           0           0           0           0           0           0           0
                0           0           0           0           0           0           0           0           0           0
                0           0           0           0           0           0           0           0           0           0
                0           0           0           0           0           0           0           0           0           0
                0           0           0           2           2           2           2           2           2           2
                2           2           2           2           2           2           2           2           0           0
                0           0           0           0           0           0           0           0           0
  69            0           0           0           0           0           0           0           0           0           0
                0           0           0           0           0           0           0           0           0           0
                0           0           0           0           0           0           0           0           0           0
                0           0           0           0           0           0           0           0           0           0
                0           0           0           0           0           0           0           0           0           0
                0           0           0           0           0           0           0           0           0           0
                2           2           2           2           2           2           2           0           0           0
                0           0           0           0           0           0           0           0           0
  70            0           0           0           0           0           0           0           0           0           0
                0           0           0           0           0           0           0           0           0           0
                0           0           0           0           0           0           0           0           0           0
                0           0           0           0           0           0           0           0           0           0
                0           0           0           0           0           0           0           0           0           0
                0           0           0           0           0           0           0           0           0           0
                0           2           2           2           2           2           0           0           0           0
                0           0           0           0           0           0           0           0           0
  71            0           0           0           0           0           0           0           0           0           0
                0           0           0           0           0           0           0           0           0           0
                0           0           0           0           0           0           0           0           0           0
                0           0           0           0           0           0           0           0           0           0
                0           0           0           0           0           0           0           0           0           0
                0           0           0           0           0           0           0           0           0           0
                0           0           2           2           0           0           0           0           0           0
                0           0           0           0           0           0           0           0           0
 OPTION 3 -- RECHARGE IN UZF TO HIGHEST ACTIVE NODE IN EACH VERTICAL COLUMN



               SATURATED VERTICAL K
 READING ON UNIT   14 WITH FORMAT: (FREE)              

            1           2           3           4           5           6           7           8           9          10
           11          12          13          14          15          16          17          18          19          20
           21          22          23          24          25          26          27          28          29          30
           31          32          33          34          35          36          37          38          39          40
           41          42          43          44          45          46          47          48          49          50
           51          52          53          54          55          56          57          58          59          60
           61          62          63          64          65          66          67          68          69          70
           71          72          73          74          75          76          77          78          79
 ........................................................................................................................
   1    0.000       0.000       0.000       0.000       0.000       0.000       0.000       0.000       0.000       0.000    
        0.000       0.000       0.000       0.000       0.000       0.000       0.000       0.000       0.000       0.000    
        0.000       0.000       0.000       0.000       0.000       0.000       0.000       0.000       0.000       0.000    
        0.000       0.000       0.000       0.000       0.000       0.000       0.000       0.000       0.000       0.000    
        0.000       0.000       0.000       0.000       0.000       0.000       0.000       0.000       0.000       0.000    
        0.000      1.8000E-02  1.8000E-02   0.000       0.000       0.000       0.000       0.000       0.000       0.000    
        0.000       0.000       0.000       0.000       0.000       0.000       0.000       0.000       0.000       0.000    
        0.000       0.000       0.000       0.000       0.000       0.000       0.000       0.000       0.000    
   2    0.000       0.000       0.000       0.000       0.000       0.000       0.000       0.000       0.000       0.000    
        0.000       0.000       0.000       0.000       0.000       0.000       0.000       0.000       0.000       0.000    
        0.000       0.000       0.000       0.000       0.000       0.000       0.000       0.000       0.000       0.000    
        0.000       0.000       0.000       0.000       0.000       0.000       0.000       0.000       0.000       0.000    
        0.000       0.000       0.000       0.000       0.000       0.000       0.000       0.000       0.000       0.000    
        0.000      1.8000E-02  4.5000E-02  4.5000E-02   0.000       0.000       0.000       0.000       0.000       0.000    
        0.000       0.000       0.000       0.000       0.000       0.000       0.000       0.000       0.000       0.000    
        0.000       0.000       0.000       0.000       0.000       0.000       0.000       0.000       0.000    
   3    0.000       0.000       0.000       0.000       0.000       0.000       0.000       0.000       0.000       0.000    
        0.000       0.000       0.000       0.000       0.000       0.000       0.000       0.000       0.000       0.000    
        0.000       0.000       0.000       0.000       0.000       0.000       0.000       0.000       0.000       0.000    
        0.000       0.000       0.000       0.000       0.000       0.000       0.000       0.000       0.000       0.000    
        0.000       0.000       0.000       0.000       0.000       0.000       0.000       0.000       0.000       0.000    
        0.000      1.8000E-02  4.5000E-02  9.0000E-02   0.000       0.000       0.000       0.000       0.000       0.000    
        0.000       0.000       0.000       0.000       0.000       0.000       0.000       0.000       0.000       0.000    
        0.000       0.000       0.000       0.000       0.000       0.000       0.000       0.000       0.000    
   4    0.000       0.000       0.000       0.000       0.000       0.000       0.000       0.000       0.000       0.000    
        0.000       0.000       0.000       0.000       0.000       0.000       0.000       0.000       0.000       0.000    
        0.000       0.000       0.000       0.000       0.000       0.000       0.000       0.000       0.000       0.000    
        0.000       0.000       0.000       0.000       0.000       0.000       0.000       0.000       0.000       0.000    
        0.000       0.000       0.000       0.000       0.000       0.000       0.000       0.000       0.000       0.000    
        0.000      4.5000E-02  4.5000E-02  9.0000E-02  9.0000E-02   0.000       0.000       0.000       0.000       0.000    
        0.000       0.000       0.000       0.000       0.000       0.000       0.000       0.000       0.000       0.000    
        0.000       0.000       0.000       0.000       0.000       0.000       0.000       0.000       0.000    
   5    0.000       0.000       0.000       0.000       0.000       0.000       0.000       0.000       0.000       0.000    
        0.000       0.000       0.000       0.000       0.000       0.000       0.000       0.000       0.000       0.000    
        0.000       0.000       0.000       0.000       0.000       0.000       0.000       0.000       0.000       0.000    
        0.000       0.000       0.000       0.000       0.000       0.000       0.000       0.000       0.000       0.000    
        0.000       0.000       0.000       0.000       0.000       0.000       0.000       0.000       0.000       0.000    
        0.000      4.5000E-02  4.5000E-02  4.5000E-02  9.0000E-02  4.5000E-02  4.5000E-02   0.000       0.000       0.000    
        0.000       0.000       0.000       0.000       0.000       0.000       0.000       0.000       0.000       0.000    
        0.000       0.000       0.000       0.000       0.000       0.000       0.000       0.000       0.000    
   6    0.000       0.000       0.000       0.000       0.000       0.000       0.000       0.000       0.000       0.000    
        0.000       0.000       0.000       0.000       0.000       0.000       0.000       0.000       0.000       0.000    
        0.000       0.000       0.000       0.000       0.000       0.000       0.000       0.000       0.000       0.000    
        0.000       0.000       0.000       0.000       0.000       0.000       0.000       0.000       0.000       0.000    
        0.000       0.000       0.000       0.000       0.000       0.000       0.000       0.000       0.000       0.000    
        0.000      4.5000E-02  4.5000E-02  4.5000E-02  9.0000E-02  9.0000E-02  4.5000E-02  4.5000E-02  4.5000E-02   0.000    
        0.000       0.000       0.000      4.5000E-02  4.5000E-02   0.000       0.000       0.000       0.000       0.000    
        0.000       0.000       0.000       0.000       0.000       0.000       0.000       0.000       0.000    
   7    0.000       0.000       0.000       0.000       0.000       0.000       0.000       0.000       0.000       0.000    
        0.000       0.000       0.000       0.000       0.000       0.000       0.000       0.000       0.000       0.000    
        0.000       0.000       0.000       0.000       0.000       0.000       0.000       0.000       0.000       0.000    
        0.000       0.000       0.000       0.000       0.000       0.000       0.000       0.000       0.000       0.000    
        0.000       0.000       0.000       0.000       0.000       0.000       0.000       0.000       0.000       0.000    
        0.000      4.5000E-02  4.5000E-02  4.5000E-02  9.0000E-02  9.0000E-02  9.0000E-02  4.5000E-02  4.5000E-02  4.5000E-02
       4.5000E-02  4.5000E-02  4.5000E-02  4.5000E-02  4.5000E-02  4.5000E-02   0.000       0.000       0.000       0.000    
        0.000       0.000       0.000       0.000       0.000       0.000       0.000       0.000       0.000    
   8    0.000       0.000       0.000       0.000       0.000       0.000       0.000       0.000       0.000       0.000    
        0.000       0.000       0.000       0.000       0.000       0.000       0.000       0.000       0.000       0.000    
        0.000       0.000       0.000       0.000       0.000       0.000       0.000       0.000       0.000       0.000    
        0.000       0.000       0.000       0.000       0.000       0.000       0.000       0.000       0.000       0.000    
        0.000       0.000       0.000       0.000       0.000       0.000       0.000       0.000       0.000       0.000    
        0.000      4.5000E-02  4.5000E-02  4.5000E-02  9.0000E-02  9.0000E-02  9.0000E-02  4.5000E-02  4.5000E-02  4.5000E-02
       4.5000E-02  4.5000E-02  4.5000E-02  4.5000E-02  4.5000E-02  4.5000E-02  4.5000E-02  4.5000E-02   0.000       0.000    
        0.000       0.000       0.000       0.000       0.000       0.000       0.000       0.000       0.000    
   9    0.000       0.000       0.000       0.000       0.000       0.000       0.000       0.000       0.000       0.000    
        0.000       0.000       0.000       0.000       0.000       0.000       0.000       0.000       0.000       0.000    
        0.000       0.000       0.000       0.000       0.000       0.000       0.000       0.000       0.000       0.000    
        0.000       0.000       0.000       0.000       0.000       0.000       0.000       0.000       0.000       0.000    
        0.000       0.000       0.000       0.000       0.000       0.000       0.000       0.000       0.000       0.000    
       3.6000E-02  4.5000E-02  4.5000E-02  4.5000E-02  9.0000E-02  9.0000E-02  9.0000E-02  4.5000E-02  4.5000E-02  4.5000E-02
       4.5000E-02  4.5000E-02  4.5000E-02  4.5000E-02  4.5000E-02  4.5000E-02  4.5000E-02  4.5000E-02  4.5000E-02   0.000    
        0.000       0.000       0.000       0.000       0.000       0.000       0.000       0.000       0.000    
  10    0.000       0.000       0.000       0.000       0.000       0.000       0.000       0.000       0.000       0.000    
        0.000       0.000       0.000       0.000       0.000       0.000       0.000       0.000       0.000       0.000    
        0.000       0.000       0.000       0.000       0.000       0.000       0.000       0.000       0.000       0.000    
        0.000       0.000       0.000       0.000       0.000       0.000       0.000       0.000       0.000       0.000    
        0.000       0.000       0.000       0.000       0.000       0.000       0.000       0.000       0.000      4.5000E-02
       4.5000E-02  4.5000E-02  4.5000E-02  4.5000E-02  4.5000E-02  9.0000E-02  9.0000E-02  9.0000E-02  4.5000E-02  4.5000E-02
       4.5000E-02  4.5000E-02  4.5000E-02  4.5000E-02  4.5000E-02  4.5000E-02  4.5000E-02  4.5000E-02  4.5000E-02  4.5000E-02
        0.000       0.000       0.000       0.000       0.000       0.000       0.000       0.000       0.000    
  11    0.000       0.000       0.000       0.000       0.000       0.000       0.000       0.000       0.000       0.000    
        0.000       0.000       0.000       0.000       0.000       0.000       0.000       0.000       0.000       0.000    
        0.000       0.000       0.000       0.000       0.000       0.000       0.000       0.000       0.000       0.000    
        0.000       0.000       0.000       0.000       0.000       0.000       0.000       0.000       0.000       0.000    
        0.000       0.000       0.000       0.000       0.000       0.000       0.000       0.000      4.5000E-02  4.5000E-02
       4.5000E-02  4.5000E-02  4.5000E-02  4.5000E-02  4.5000E-02  9.0000E-02  9.0000E-02  9.0000E-02  4.5000E-02  4.5000E-02
       4.5000E-02  4.5000E-02  4.5000E-02  4.5000E-02  4.5000E-02  4.5000E-02  4.5000E-02  4.5000E-02  4.5000E-02  4.5000E-02
       4.5000E-02   0.000       0.000       0.000       0.000       0.000       0.000       0.000       0.000    
  12    0.000       0.000       0.000       0.000       0.000       0.000       0.000       0.000       0.000       0.000    
        0.000       0.000       0.000       0.000       0.000       0.000       0.000       0.000       0.000       0.000    
        0.000       0.000       0.000       0.000       0.000       0.000       0.000       0.000       0.000       0.000    
        0.000       0.000       0.000       0.000       0.000       0.000       0.000       0.000       0.000       0.000    
        0.000      3.6000E-02  3.6000E-02   0.000       0.000       0.000       0.000      3.6000E-02  4.5000E-02  4.5000E-02
       4.5000E-02  4.5000E-02  4.5000E-02  4.5000E-02  4.5000E-02  9.0000E-02  9.0000E-02  9.0000E-02  4.5000E-02  4.5000E-02
       4.5000E-02  4.5000E-02  4.5000E-02  4.5000E-02  4.5000E-02  4.5000E-02  4.5000E-02  4.5000E-02  4.5000E-02  4.5000E-02
       4.5000E-02   0.000       0.000       0.000       0.000       0.000       0.000       0.000       0.000    
  13    0.000       0.000       0.000       0.000       0.000       0.000       0.000       0.000       0.000       0.000    
        0.000       0.000       0.000       0.000       0.000       0.000       0.000       0.000       0.000       0.000    
        0.000       0.000       0.000       0.000       0.000       0.000       0.000       0.000       0.000       0.000    
        0.000       0.000       0.000       0.000       0.000       0.000       0.000       0.000      3.6000E-02  3.6000E-02
       3.6000E-02  3.6000E-02  3.6000E-02  3.6000E-02  3.6000E-02  3.6000E-02  3.6000E-02  3.6000E-02  4.5000E-02  4.5000E-02
       4.5000E-02  4.5000E-02  4.5000E-02  4.5000E-02  4.5000E-02  9.0000E-02  9.0000E-02  9.0000E-02  4.5000E-02  4.5000E-02
       4.5000E-02  4.5000E-02  4.5000E-02  4.5000E-02  4.5000E-02  4.5000E-02  4.5000E-02  4.5000E-02  4.5000E-02  4.5000E-02
       4.5000E-02  4.5000E-02   0.000       0.000       0.000       0.000       0.000       0.000       0.000    
  14    0.000       0.000       0.000       0.000       0.000       0.000       0.000       0.000       0.000       0.000    
        0.000       0.000       0.000       0.000       0.000       0.000       0.000       0.000       0.000       0.000    
        0.000       0.000       0.000       0.000       0.000       0.000       0.000       0.000       0.000       0.000    
        0.000       0.000       0.000       0.000       0.000       0.000       0.000       0.000      3.6000E-02  3.6000E-02
       3.6000E-02  3.6000E-02  3.6000E-02  3.6000E-02  4.5000E-02  4.5000E-02  4.5000E-02  4.5000E-02  4.5000E-02  4.5000E-02
       4.5000E-02  4.5000E-02  4.5000E-02  4.5000E-02  4.5000E-02  9.0000E-02  9.0000E-02  9.0000E-02  9.0000E-02  9.0000E-02
       4.5000E-02  4.5000E-02  4.5000E-02  4.5000E-02  4.5000E-02  4.5000E-02  4.5000E-02  9.0000E-02  4.5000E-02  4.5000E-02
       4.5000E-02  4.5000E-02  4.5000E-02   0.000       0.000       0.000       0.000       0.000       0.000    
  15    0.000       0.000       0.000       0.000       0.000       0.000       0.000       0.000       0.000       0.000    
        0.000       0.000       0.000       0.000       0.000       0.000       0.000       0.000       0.000       0.000    
        0.000       0.000       0.000       0.000       0.000       0.000       0.000       0.000       0.000       0.000    
        0.000       0.000       0.000       0.000       0.000       0.000       0.000      3.6000E-02  3.6000E-02  3.6000E-02
       4.5000E-02  4.5000E-02  4.5000E-02  4.5000E-02  4.5000E-02  4.5000E-02  4.5000E-02  4.5000E-02  4.5000E-02  4.5000E-02
       4.5000E-02  4.5000E-02  4.5000E-02  4.5000E-02  4.5000E-02  4.5000E-02  9.0000E-02  9.0000E-02  9.0000E-02  9.0000E-02
       9.0000E-02  4.5000E-02  4.5000E-02  9.0000E-02  9.0000E-02  9.0000E-02  9.0000E-02  9.0000E-02  9.0000E-02  4.5000E-02
       4.5000E-02  4.5000E-02  2.7000E-02   0.000       0.000       0.000       0.000       0.000       0.000    
  16    0.000       0.000       0.000       0.000       0.000       0.000       0.000       0.000       0.000       0.000    
        0.000       0.000       0.000       0.000       0.000       0.000       0.000       0.000       0.000       0.000    
        0.000       0.000       0.000       0.000       0.000       0.000       0.000       0.000       0.000       0.000    
        0.000       0.000       0.000       0.000       0.000       0.000      3.6000E-02  3.6000E-02  3.6000E-02  3.6000E-02
       3.6000E-02  4.5000E-02  4.5000E-02  4.5000E-02  4.5000E-02  4.5000E-02  4.5000E-02  4.5000E-02  4.5000E-02  4.5000E-02
       4.5000E-02  4.5000E-02  4.5000E-02  4.5000E-02  4.5000E-02  4.5000E-02  9.0000E-02  9.0000E-02  9.0000E-02  9.0000E-02
       9.0000E-02  9.0000E-02  9.0000E-02  9.0000E-02  9.0000E-02  9.0000E-02  9.0000E-02  9.0000E-02  9.0000E-02  4.5000E-02
       4.5000E-02  4.5000E-02  2.7000E-02  2.7000E-02   0.000       0.000       0.000       0.000       0.000    
  17    0.000       0.000       0.000       0.000       0.000       0.000       0.000       0.000       0.000       0.000    
        0.000       0.000       0.000       0.000       0.000       0.000       0.000       0.000       0.000       0.000    
        0.000       0.000       0.000       0.000       0.000       0.000       0.000       0.000       0.000       0.000    
        0.000       0.000       0.000       0.000       0.000      3.6000E-02  3.6000E-02  3.6000E-02  3.6000E-02  3.6000E-02
       3.6000E-02  4.5000E-02  4.5000E-02  4.5000E-02  4.5000E-02  4.5000E-02  4.5000E-02  4.5000E-02  4.5000E-02  4.5000E-02
       4.5000E-02  4.5000E-02  4.5000E-02  4.5000E-02  4.5000E-02  4.5000E-02  9.0000E-02  9.0000E-02  9.0000E-02  9.0000E-02
       9.0000E-02  9.0000E-02  9.0000E-02  9.0000E-02  9.0000E-02  9.0000E-02  9.0000E-02  9.0000E-02  9.0000E-02  4.5000E-02
       4.5000E-02  4.5000E-02  2.7000E-02  2.7000E-02   0.000       0.000       0.000       0.000       0.000    
  18    0.000       0.000       0.000       0.000       0.000       0.000       0.000       0.000       0.000       0.000    
        0.000       0.000       0.000       0.000       0.000       0.000       0.000       0.000       0.000       0.000    
        0.000       0.000       0.000       0.000       0.000       0.000       0.000       0.000       0.000       0.000    
        0.000       0.000       0.000       0.000      3.6000E-02  3.6000E-02  3.6000E-02  3.6000E-02  3.6000E-02  3.6000E-02
       3.6000E-02  3.6000E-02  3.6000E-02  4.5000E-02  4.5000E-02  4.5000E-02  4.5000E-02  4.5000E-02  4.5000E-02  4.5000E-02
       4.5000E-02  4.5000E-02  4.5000E-02  4.5000E-02  4.5000E-02  4.5000E-02  9.0000E-02  9.0000E-02  9.0000E-02  9.0000E-02
       9.0000E-02  9.0000E-02  9.0000E-02  9.0000E-02  9.0000E-02  9.0000E-02  9.0000E-02  9.0000E-02  9.0000E-02  9.0000E-02
       4.5000E-02  4.5000E-02  4.5000E-02  2.7000E-02   0.000       0.000       0.000       0.000       0.000    
  19    0.000       0.000       0.000       0.000       0.000       0.000       0.000       0.000       0.000       0.000    
        0.000       0.000       0.000       0.000       0.000       0.000       0.000       0.000       0.000       0.000    
        0.000       0.000       0.000       0.000       0.000       0.000       0.000       0.000       0.000       0.000    
        0.000       0.000       0.000      3.6000E-02  3.6000E-02  3.6000E-02  3.6000E-02  3.6000E-02  3.6000E-02  3.6000E-02
       3.6000E-02  3.6000E-02  3.6000E-02  3.6000E-02  4.5000E-02  4.5000E-02  4.5000E-02  4.5000E-02  4.5000E-02  4.5000E-02
       4.5000E-02  4.5000E-02  4.5000E-02  4.5000E-02  4.5000E-02  4.5000E-02  4.5000E-02  9.0000E-02  9.0000E-02  9.0000E-02
       9.0000E-02  9.0000E-02  9.0000E-02  9.0000E-02  9.0000E-02  9.0000E-02  9.0000E-02  9.0000E-02  9.0000E-02  9.0000E-02
       4.5000E-02  4.5000E-02  4.5000E-02  2.7000E-02   0.000       0.000       0.000       0.000       0.000    
  20    0.000       0.000       0.000       0.000       0.000       0.000       0.000       0.000       0.000       0.000    
        0.000       0.000       0.000       0.000       0.000       0.000       0.000       0.000       0.000       0.000    
        0.000       0.000       0.000       0.000       0.000       0.000       0.000       0.000       0.000       0.000    
        0.000       0.000       0.000      1.8000E-02  3.6000E-02  3.6000E-02  3.6000E-02  3.6000E-02  3.6000E-02  3.6000E-02
       3.6000E-02  3.6000E-02  3.6000E-02  3.6000E-02  4.5000E-02  4.5000E-02  4.5000E-02  4.5000E-02  4.5000E-02  4.5000E-02
       4.5000E-02  4.5000E-02  4.5000E-02  4.5000E-02  4.5000E-02  4.5000E-02  4.5000E-02  9.0000E-02  9.0000E-02  9.0000E-02
       9.0000E-02  9.0000E-02  9.0000E-02  9.0000E-02  9.0000E-02  9.0000E-02  9.0000E-02  9.0000E-02  9.0000E-02  9.0000E-02
       4.5000E-02  4.5000E-02  4.5000E-02  2.7000E-02   0.000       0.000       0.000       0.000       0.000    
  21    0.000       0.000       0.000       0.000       0.000       0.000       0.000       0.000       0.000       0.000    
        0.000       0.000       0.000       0.000       0.000       0.000       0.000       0.000       0.000       0.000    
        0.000       0.000       0.000       0.000       0.000       0.000       0.000       0.000       0.000       0.000    
        0.000       0.000      1.8000E-02  1.8000E-02  3.6000E-02  1.8000E-02  3.6000E-02  3.6000E-02  3.6000E-02  3.6000E-02
       3.6000E-02  3.6000E-02  3.6000E-02  3.6000E-02  3.6000E-02  4.5000E-02  4.5000E-02  4.5000E-02  4.5000E-02  4.5000E-02
       4.5000E-02  4.5000E-02  4.5000E-02  4.5000E-02  4.5000E-02  4.5000E-02  4.5000E-02  4.5000E-02  9.0000E-02  9.0000E-02
       9.0000E-02  9.0000E-02  9.0000E-02  9.0000E-02  9.0000E-02  9.0000E-02  9.0000E-02  9.0000E-02  9.0000E-02  4.5000E-02
       4.5000E-02  4.5000E-02  4.5000E-02  2.7000E-02  2.7000E-02   0.000       0.000       0.000       0.000    
  22    0.000       0.000       0.000       0.000       0.000       0.000       0.000       0.000       0.000       0.000    
        0.000       0.000       0.000       0.000       0.000       0.000       0.000       0.000       0.000       0.000    
        0.000       0.000       0.000       0.000       0.000       0.000       0.000       0.000       0.000       0.000    
        0.000       0.000      1.8000E-02  1.8000E-02  1.8000E-02  1.8000E-02  3.6000E-02  3.6000E-02  3.6000E-02  3.6000E-02
       3.6000E-02  3.6000E-02  3.6000E-02  3.6000E-02  3.6000E-02  4.5000E-02  4.5000E-02  4.5000E-02  4.5000E-02  4.5000E-02
       4.5000E-02  4.5000E-02  4.5000E-02  4.5000E-02  4.5000E-02  4.5000E-02  4.5000E-02  4.5000E-02  4.5000E-02  4.5000E-02
       4.5000E-02  9.0000E-02  9.0000E-02  9.0000E-02  9.0000E-02  9.0000E-02  9.0000E-02  9.0000E-02  9.0000E-02  4.5000E-02
       4.5000E-02  4.5000E-02  4.5000E-02  4.5000E-02   0.000       0.000       0.000       0.000       0.000    
  23    0.000       0.000       0.000       0.000       0.000       0.000       0.000       0.000       0.000       0.000    
        0.000       0.000       0.000       0.000       0.000       0.000       0.000       0.000       0.000       0.000    
        0.000       0.000       0.000       0.000       0.000       0.000       0.000       0.000       0.000       0.000    
        0.000      1.8000E-02  1.8000E-02  1.8000E-02  1.8000E-02  3.6000E-02  3.6000E-02  3.6000E-02  3.6000E-02  3.6000E-02
       3.6000E-02  3.6000E-02  3.6000E-02  3.6000E-02  3.6000E-02  4.5000E-02  4.5000E-02  9.0000E-02  4.5000E-02  4.5000E-02
       4.5000E-02  4.5000E-02  4.5000E-02  4.5000E-02  4.5000E-02  4.5000E-02  4.5000E-02  4.5000E-02  4.5000E-02  4.5000E-02
       4.5000E-02  4.5000E-02  9.0000E-02  9.0000E-02  9.0000E-02  9.0000E-02  9.0000E-02  9.0000E-02  9.0000E-02  4.5000E-02
       4.5000E-02   0.000       0.000       0.000       0.000       0.000       0.000       0.000       0.000    
  24    0.000       0.000       0.000       0.000       0.000       0.000       0.000       0.000       0.000       0.000    
        0.000       0.000       0.000       0.000       0.000       0.000       0.000       0.000       0.000       0.000    
        0.000       0.000       0.000       0.000       0.000       0.000       0.000       0.000      1.8000E-02  1.8000E-02
       1.8000E-02  1.8000E-02  1.8000E-02  1.8000E-02  1.8000E-02  3.6000E-02  3.6000E-02  3.6000E-02  3.6000E-02  3.6000E-02
       3.6000E-02  3.6000E-02  3.6000E-02  3.6000E-02  3.6000E-02  4.5000E-02  4.5000E-02  9.0000E-02  9.0000E-02  4.5000E-02
       4.5000E-02  4.5000E-02  4.5000E-02  4.5000E-02  4.5000E-02  4.5000E-02  4.5000E-02  4.5000E-02  4.5000E-02  4.5000E-02
       4.5000E-02  4.5000E-02  4.5000E-02  9.0000E-02  9.0000E-02  9.0000E-02  9.0000E-02  9.0000E-02  9.0000E-02  4.5000E-02
       4.5000E-02   0.000       0.000       0.000       0.000       0.000       0.000       0.000       0.000    
  25    0.000       0.000       0.000       0.000       0.000       0.000       0.000       0.000       0.000       0.000    
        0.000       0.000       0.000       0.000       0.000       0.000       0.000       0.000       0.000       0.000    
        0.000       0.000       0.000       0.000       0.000       0.000       0.000      1.8000E-02  1.8000E-02  1.8000E-02
       1.8000E-02  1.8000E-02  1.8000E-02  1.8000E-02  3.6000E-02  3.6000E-02  3.6000E-02  3.6000E-02  3.6000E-02  3.6000E-02
       3.6000E-02  3.6000E-02  3.6000E-02  3.6000E-02  4.5000E-02  4.5000E-02  4.5000E-02  9.0000E-02  9.0000E-02  4.5000E-02
       4.5000E-02  4.5000E-02  4.5000E-02  4.5000E-02  4.5000E-02  4.5000E-02  4.5000E-02  4.5000E-02  4.5000E-02  4.5000E-02
       4.5000E-02  4.5000E-02  4.5000E-02  4.5000E-02  4.5000E-02  9.0000E-02  9.0000E-02  9.0000E-02  9.0000E-02  4.5000E-02
       4.5000E-02   0.000       0.000       0.000       0.000       0.000       0.000       0.000       0.000    
  26    0.000       0.000       0.000       0.000       0.000       0.000       0.000       0.000       0.000       0.000    
        0.000       0.000       0.000       0.000       0.000       0.000       0.000       0.000       0.000       0.000    
        0.000       0.000       0.000       0.000       0.000      1.8000E-02  1.8000E-02  1.8000E-02  1.8000E-02  1.8000E-02
       1.8000E-02  1.8000E-02  1.8000E-02  3.6000E-02  3.6000E-02  3.6000E-02  3.6000E-02  3.6000E-02  3.6000E-02  3.6000E-02
       3.6000E-02  3.6000E-02  4.5000E-02  4.5000E-02  4.5000E-02  4.5000E-02  4.5000E-02  4.5000E-02  9.0000E-02  9.0000E-02
       9.0000E-02  4.5000E-02  4.5000E-02  4.5000E-02  4.5000E-02  4.5000E-02  4.5000E-02  4.5000E-02  4.5000E-02  4.5000E-02
       4.5000E-02  4.5000E-02  4.5000E-02  4.5000E-02  4.5000E-02  9.0000E-02  9.0000E-02  9.0000E-02  9.0000E-02  4.5000E-02
       4.5000E-02   0.000       0.000       0.000       0.000       0.000       0.000       0.000       0.000    
  27    0.000       0.000       0.000       0.000       0.000       0.000       0.000       0.000       0.000       0.000    
        0.000       0.000       0.000       0.000       0.000       0.000       0.000       0.000       0.000       0.000    
        0.000       0.000       0.000       0.000      1.8000E-02  1.8000E-02  1.8000E-02  1.8000E-02  1.8000E-02  1.8000E-02
       1.8000E-02  1.8000E-02  3.6000E-02  3.6000E-02  3.6000E-02  3.6000E-02  3.6000E-02  3.6000E-02  3.6000E-02  3.6000E-02
       3.6000E-02  4.5000E-02  4.5000E-02  4.5000E-02  4.5000E-02  4.5000E-02  4.5000E-02  4.5000E-02  4.5000E-02  9.0000E-02
       9.0000E-02  4.5000E-02  4.5000E-02  4.5000E-02  4.5000E-02  4.5000E-02  4.5000E-02  4.5000E-02  4.5000E-02  4.5000E-02
       4.5000E-02  4.5000E-02  4.5000E-02  4.5000E-02  4.5000E-02  9.0000E-02  9.0000E-02  9.0000E-02  9.0000E-02  9.0000E-02
       4.5000E-02   0.000       0.000       0.000       0.000       0.000       0.000       0.000       0.000    
  28    0.000       0.000       0.000       0.000       0.000       0.000       0.000       0.000       0.000       0.000    
        0.000       0.000       0.000       0.000       0.000       0.000       0.000       0.000       0.000       0.000    
        0.000       0.000       0.000      1.8000E-02  1.8000E-02  1.8000E-02  1.8000E-02  1.8000E-02  1.8000E-02  1.8000E-02
       1.8000E-02  3.6000E-02  3.6000E-02  3.6000E-02  3.6000E-02  3.6000E-02  3.6000E-02  3.6000E-02  4.5000E-02  4.5000E-02
       4.5000E-02  4.5000E-02  4.5000E-02  4.5000E-02  4.5000E-02  4.5000E-02  4.5000E-02  4.5000E-02  4.5000E-02  4.5000E-02
       9.0000E-02  9.0000E-02  4.5000E-02  4.5000E-02  4.5000E-02  4.5000E-02  4.5000E-02  4.5000E-02  4.5000E-02  4.5000E-02
       4.5000E-02  4.5000E-02  4.5000E-02  4.5000E-02  4.5000E-02  4.5000E-02  9.0000E-02  9.0000E-02  0.2700      9.0000E-02
       4.5000E-02  4.5000E-02   0.000       0.000       0.000       0.000       0.000       0.000       0.000    
  29    0.000       0.000       0.000       0.000       0.000       0.000       0.000       0.000       0.000       0.000    
        0.000       0.000       0.000       0.000       0.000       0.000       0.000       0.000       0.000       0.000    
        0.000      1.8000E-02  1.8000E-02  1.8000E-02  1.8000E-02  1.8000E-02  1.8000E-02  1.8000E-02  1.8000E-02  3.6000E-02
       3.6000E-02  3.6000E-02  3.6000E-02  3.6000E-02  3.6000E-02  3.6000E-02  3.6000E-02  4.5000E-02  4.5000E-02  4.5000E-02
       4.5000E-02  4.5000E-02  4.5000E-02  4.5000E-02  4.5000E-02  4.5000E-02  4.5000E-02  4.5000E-02  4.5000E-02  4.5000E-02
       9.0000E-02  9.0000E-02  4.5000E-02  4.5000E-02  4.5000E-02  4.5000E-02  4.5000E-02  4.5000E-02  4.5000E-02  4.5000E-02
       4.5000E-02  4.5000E-02  4.5000E-02  4.5000E-02  4.5000E-02  4.5000E-02  9.0000E-02  9.0000E-02  0.2700      9.0000E-02
       4.5000E-02  4.5000E-02   0.000       0.000       0.000       0.000       0.000       0.000       0.000    
  30    0.000       0.000       0.000       0.000       0.000       0.000       0.000       0.000       0.000       0.000    
        0.000       0.000       0.000       0.000       0.000       0.000       0.000       0.000       0.000      1.8000E-02
       1.8000E-02  1.8000E-02  1.8000E-02  1.8000E-02  1.8000E-02  1.8000E-02  1.8000E-02  3.6000E-02  3.6000E-02  3.6000E-02
       3.6000E-02  3.6000E-02  3.6000E-02  3.6000E-02  3.6000E-02  3.6000E-02  3.6000E-02  4.5000E-02  4.5000E-02  4.5000E-02
       4.5000E-02  4.5000E-02  4.5000E-02  4.5000E-02  4.5000E-02  4.5000E-02  4.5000E-02  4.5000E-02  4.5000E-02  4.5000E-02
       9.0000E-02  9.0000E-02  4.5000E-02  4.5000E-02  4.5000E-02  4.5000E-02  4.5000E-02  4.5000E-02  4.5000E-02  4.5000E-02
       4.5000E-02  4.5000E-02  4.5000E-02  4.5000E-02  4.5000E-02  4.5000E-02  9.0000E-02  9.0000E-02  0.2700      9.0000E-02
       4.5000E-02  4.5000E-02   0.000       0.000       0.000       0.000       0.000       0.000       0.000    
  31    0.000       0.000       0.000       0.000       0.000       0.000       0.000       0.000       0.000       0.000    
        0.000       0.000       0.000       0.000       0.000       0.000       0.000       0.000      1.8000E-02  1.8000E-02
       1.8000E-02  1.8000E-02  1.8000E-02  3.6000E-02  3.6000E-02  3.6000E-02  3.6000E-02  3.6000E-02  3.6000E-02  3.6000E-02
       3.6000E-02  3.6000E-02  3.6000E-02  3.6000E-02  3.6000E-02  3.6000E-02  4.5000E-02  4.5000E-02  4.5000E-02  4.5000E-02
       4.5000E-02  4.5000E-02  4.5000E-02  9.0000E-02  4.5000E-02  4.5000E-02  4.5000E-02  4.5000E-02  4.5000E-02  4.5000E-02
       9.0000E-02  9.0000E-02  4.5000E-02  4.5000E-02  4.5000E-02  4.5000E-02  4.5000E-02  4.5000E-02  4.5000E-02  4.5000E-02
       4.5000E-02  4.5000E-02  4.5000E-02  4.5000E-02  4.5000E-02  4.5000E-02  9.0000E-02  9.0000E-02  0.2700      0.2700    
       4.5000E-02  4.5000E-02   0.000       0.000       0.000       0.000       0.000       0.000       0.000    
  32    0.000       0.000       0.000       0.000       0.000       0.000       0.000       0.000       0.000       0.000    
        0.000       0.000       0.000       0.000       0.000       0.000      1.8000E-02  1.8000E-02  1.8000E-02  1.8000E-02
       1.8000E-02  1.8000E-02  3.6000E-02  3.6000E-02  3.6000E-02  3.6000E-02  3.6000E-02  3.6000E-02  3.6000E-02  3.6000E-02
       3.6000E-02  3.6000E-02  3.6000E-02  3.6000E-02  3.6000E-02  3.6000E-02  4.5000E-02  4.5000E-02  0.2700      0.2700    
       0.2700      0.2700      0.2700      0.2700      4.5000E-02  4.5000E-02  4.5000E-02  4.5000E-02  4.5000E-02  4.5000E-02
       9.0000E-02  9.0000E-02  9.0000E-02  4.5000E-02  4.5000E-02  4.5000E-02  4.5000E-02  4.5000E-02  4.5000E-02  4.5000E-02
       4.5000E-02  4.5000E-02  4.5000E-02  4.5000E-02  4.5000E-02  4.5000E-02  4.5000E-02  9.0000E-02  9.0000E-02  0.2700    
       9.0000E-02  4.5000E-02   0.000       0.000       0.000       0.000       0.000       0.000       0.000    
  33    0.000       0.000       0.000       0.000       0.000       0.000       0.000       0.000       0.000       0.000    
        0.000       0.000       0.000       0.000       0.000      1.8000E-02  1.8000E-02  1.8000E-02  1.8000E-02  1.8000E-02
       1.8000E-02  1.8000E-02  3.6000E-02  3.6000E-02  3.6000E-02  3.6000E-02  3.6000E-02  3.6000E-02  3.6000E-02  3.6000E-02
       3.6000E-02  3.6000E-02  3.6000E-02  3.6000E-02  4.5000E-02  4.5000E-02  4.5000E-02  0.2700      0.2700      0.2700    
       0.2700      0.2700      0.2700      0.2700      0.2700      4.5000E-02  4.5000E-02  4.5000E-02  4.5000E-02  4.5000E-02
       9.0000E-02  9.0000E-02  9.0000E-02  9.0000E-02  9.0000E-02  9.0000E-02  4.5000E-02  4.5000E-02  4.5000E-02  4.5000E-02
       4.5000E-02  4.5000E-02  4.5000E-02  4.5000E-02  4.5000E-02  4.5000E-02  4.5000E-02  9.0000E-02  9.0000E-02  0.2700    
       9.0000E-02  4.5000E-02  4.5000E-02   0.000       0.000       0.000       0.000       0.000       0.000    
  34    0.000       0.000       0.000       0.000       0.000       0.000       0.000       0.000       0.000       0.000    
        0.000       0.000       0.000       0.000      1.8000E-02  1.8000E-02  1.8000E-02  1.8000E-02  1.8000E-02  1.8000E-02
       1.8000E-02  1.8000E-02  3.6000E-02  3.6000E-02  3.6000E-02  3.6000E-02  3.6000E-02  9.0000E-02  3.6000E-02  3.6000E-02
       3.6000E-02  3.6000E-02  3.6000E-02  3.6000E-02  4.5000E-02  4.5000E-02  0.2700      0.2700      0.2700      0.2700    
       0.2700      9.0000E-02  9.0000E-02  0.2700      0.2700      0.2700      0.2700      0.2700      0.2700      9.0000E-02
       9.0000E-02  9.0000E-02  0.2700      0.2700      0.2700      9.0000E-02  4.5000E-02  4.5000E-02  4.5000E-02  4.5000E-02
       4.5000E-02  4.5000E-02  4.5000E-02  4.5000E-02  4.5000E-02  4.5000E-02  4.5000E-02  9.0000E-02  9.0000E-02  9.0000E-02
       4.5000E-02  3.6000E-02  3.6000E-02   0.000       0.000       0.000       0.000       0.000       0.000    
  35    0.000       0.000       0.000       0.000       0.000       0.000       0.000       0.000       0.000       0.000    
        0.000       0.000       0.000      1.8000E-02  1.8000E-02  1.8000E-02  1.8000E-02  1.8000E-02  3.6000E-02  3.6000E-02
       3.6000E-02  3.6000E-02  3.6000E-02  3.6000E-02  9.0000E-02  9.0000E-02  9.0000E-02  9.0000E-02  9.0000E-02  9.0000E-02
       3.6000E-02  3.6000E-02  9.0000E-02  9.0000E-02  0.2700      0.2700      0.2700      0.2700      9.0000E-02  9.0000E-02
       9.0000E-02  9.0000E-02  9.0000E-02  9.0000E-02  0.2700      0.2700      0.2700      0.2700      0.2700      0.2700    
       0.2700      0.2700      0.2700      0.2700      0.2700      0.2700      4.5000E-02  4.5000E-02  4.5000E-02  4.5000E-02
       4.5000E-02  4.5000E-02  4.5000E-02  4.5000E-02  4.5000E-02  4.5000E-02  4.5000E-02  9.0000E-02  9.0000E-02  4.5000E-02
       4.5000E-02  3.6000E-02  1.8000E-02  1.8000E-02   0.000       0.000       0.000       0.000       0.000    
  36    0.000       0.000       0.000       0.000       0.000       0.000       0.000       0.000       0.000       0.000    
        0.000       0.000       0.000      1.8000E-02  1.8000E-02  1.8000E-02  1.8000E-02  3.6000E-02  3.6000E-02  3.6000E-02
       3.6000E-02  3.6000E-02  3.6000E-02  3.6000E-02  9.0000E-02  9.0000E-02  9.0000E-02  9.0000E-02  0.2700      0.2700    
       0.2700      0.2700      0.2700      0.2700      0.2700      0.2700      0.2700      0.2700      9.0000E-02  9.0000E-02
       9.0000E-02  9.0000E-02  9.0000E-02  9.0000E-02  0.2700      0.2700      0.2700      0.2700      0.2700      0.2700    
       0.2700      0.2700      0.2700      0.2700      0.2700      0.2700      0.2700      9.0000E-02  9.0000E-02  4.5000E-02
       4.5000E-02  4.5000E-02  9.0000E-02  9.0000E-02  4.5000E-02  4.5000E-02  4.5000E-02  9.0000E-02  9.0000E-02  4.5000E-02
       4.5000E-02  4.5000E-02  1.8000E-02  1.8000E-02  1.8000E-02   0.000       0.000       0.000       0.000    
  37    0.000       0.000       0.000       0.000       0.000       0.000       0.000       0.000       0.000       0.000    
        0.000       0.000      1.8000E-02  1.8000E-02  1.8000E-02  1.8000E-02  3.6000E-02  3.6000E-02  3.6000E-02  3.6000E-02
       3.6000E-02  3.6000E-02  3.6000E-02  9.0000E-02  0.2700      0.2700      0.2700      0.2700      0.2700      0.2700    
       0.2700      0.2700      0.2700      0.2700      0.2700      0.2700      0.2700      0.2700      4.5000E-02  4.5000E-02
       4.5000E-02  4.5000E-02  9.0000E-02  0.2700      0.2700      0.2700      0.2700      0.2700      0.2700      0.2700    
       0.2700      0.2700      0.2700      0.2700      0.2700      0.2700      0.2700      0.2700      0.2700      0.2700    
       0.2700      0.2700      9.0000E-02  9.0000E-02  9.0000E-02  9.0000E-02  9.0000E-02  9.0000E-02  9.0000E-02  9.0000E-02
       4.5000E-02  4.5000E-02  3.6000E-02  1.8000E-02  1.8000E-02   0.000       0.000       0.000       0.000    
  38    0.000       0.000       0.000       0.000       0.000       0.000       0.000       0.000       0.000       0.000    
       3.6000E-02  3.6000E-02  1.8000E-02  3.6000E-02  3.6000E-02  3.6000E-02  3.6000E-02  3.6000E-02  9.0000E-02  9.0000E-02
       9.0000E-02  9.0000E-02  9.0000E-02  9.0000E-02  9.0000E-02  0.2700      0.2700      0.2700      9.0000E-02  9.0000E-02
       0.2700      0.2700      0.2700      0.2700      0.2700      0.2700      0.2700      0.2700      4.5000E-02  4.5000E-02
       4.5000E-02  4.5000E-02  9.0000E-02  0.2700      0.2700      0.2700      4.5000E-02  9.0000E-02  9.0000E-02  9.0000E-02
       9.0000E-02  9.0000E-02  0.2700      0.2700      0.2700      0.2700      0.2700      0.2700      0.2700      0.2700    
       0.2700      0.2700      0.2700      0.2700      0.2700      0.2700      0.2700      0.2700      0.2700      9.0000E-02
       9.0000E-02  4.5000E-02  3.6000E-02  1.8000E-02  1.8000E-02  3.6000E-02   0.000       0.000       0.000    
  39    0.000       0.000       0.000       0.000       0.000       0.000       0.000      1.8000E-02  1.8000E-02  3.6000E-02
       3.6000E-02  3.6000E-02  3.6000E-02  3.6000E-02  9.0000E-02  9.0000E-02  9.0000E-02  9.0000E-02  9.0000E-02  9.0000E-02
       9.0000E-02  9.0000E-02  9.0000E-02  4.5000E-02  4.5000E-02  4.5000E-02  4.5000E-02  4.5000E-02  9.0000E-02  0.2700    
       0.2700      0.2700      0.2700      0.2700      0.2700      0.2700      0.2700      0.2700      4.5000E-02  4.5000E-02
       4.5000E-02  4.5000E-02  4.5000E-02  0.2700      0.2700      4.5000E-02  4.5000E-02  4.5000E-02  9.0000E-02  9.0000E-02
       9.0000E-02  9.0000E-02  9.0000E-02  9.0000E-02  9.0000E-02  9.0000E-02  9.0000E-02  9.0000E-02  9.0000E-02  0.2700    
       0.2700      0.2700      0.2700      0.2700      0.2700      0.2700      0.2700      0.2700      0.2700      0.2700    
       0.2700      0.2700      9.0000E-02  3.6000E-02  3.6000E-02  0.8100       0.000       0.000       0.000    
  40    0.000       0.000       0.000       0.000       0.000       0.000      1.8000E-02  1.8000E-02  1.8000E-02  3.6000E-02
       3.6000E-02  3.6000E-02  9.0000E-02  9.0000E-02  9.0000E-02  9.0000E-02  9.0000E-02  9.0000E-02  3.6000E-02  3.6000E-02
       3.6000E-02  3.6000E-02  4.5000E-02  4.5000E-02  4.5000E-02  4.5000E-02  4.5000E-02  4.5000E-02  0.2700      0.2700    
       0.2700      0.2700      0.2700      0.2700      0.2700      0.2700      0.2700      0.2700      4.5000E-02  4.5000E-02
       4.5000E-02  4.5000E-02  4.5000E-02  0.2700      0.2700      4.5000E-02  4.5000E-02  4.5000E-02  4.5000E-02  9.0000E-02
       9.0000E-02  9.0000E-02  9.0000E-02  9.0000E-02  9.0000E-02  9.0000E-02  4.5000E-02  4.5000E-02  9.0000E-02  0.2700    
       0.2700      9.0000E-02  9.0000E-02  9.0000E-02  9.0000E-02  0.2700      0.2700      0.2700      0.2700      0.2700    
       0.2700      0.2700      0.2700      0.2700      0.2700      0.8100       0.000       0.000       0.000    
  41    0.000       0.000       0.000       0.000       0.000      1.8000E-02  1.8000E-02  1.8000E-02  3.6000E-02  3.6000E-02
       3.6000E-02  3.6000E-02  9.0000E-02  9.0000E-02  3.6000E-02  3.6000E-02  3.6000E-02  3.6000E-02  3.6000E-02  3.6000E-02
       3.6000E-02  4.5000E-02  4.5000E-02  4.5000E-02  4.5000E-02  4.5000E-02  4.5000E-02  4.5000E-02  0.2700      0.2700    
       9.0000E-02  9.0000E-02  9.0000E-02  0.2700      0.2700      0.2700      0.2700      0.2700      4.5000E-02  4.5000E-02
       4.5000E-02  4.5000E-02  4.5000E-02  0.2700      0.2700      0.2700      4.5000E-02  4.5000E-02  4.5000E-02  9.0000E-02
       9.0000E-02  9.0000E-02  3.6000E-02  3.6000E-02  3.6000E-02  3.6000E-02  4.5000E-02  4.5000E-02  4.5000E-02  0.2700    
       0.2700      9.0000E-02  4.5000E-02  9.0000E-02  9.0000E-02  9.0000E-02  4.5000E-02  4.5000E-02  0.2700      0.2700    
       0.2700      0.2700      0.2700      0.2700      0.2700       0.000       0.000       0.000       0.000    
  42    0.000       0.000       0.000       0.000       0.000      1.8000E-02  1.8000E-02  1.8000E-02  3.6000E-02  3.6000E-02
       3.6000E-02  3.6000E-02  3.6000E-02  3.6000E-02  3.6000E-02  3.6000E-02  3.6000E-02  3.6000E-02  3.6000E-02  4.5000E-02
       4.5000E-02  4.5000E-02  4.5000E-02  0.2700      0.2700      0.2700      0.2700      0.2700      0.2700      9.0000E-02
       9.0000E-02  9.0000E-02  9.0000E-02  9.0000E-02  0.2700      0.2700      0.2700      0.2700      4.5000E-02  4.5000E-02
       4.5000E-02  4.5000E-02  4.5000E-02  9.0000E-02  0.2700      0.2700      4.5000E-02  4.5000E-02  4.5000E-02  4.5000E-02
       3.6000E-02  3.6000E-02  3.6000E-02  3.6000E-02  3.6000E-02  3.6000E-02  3.6000E-02  4.5000E-02  4.5000E-02  0.2700    
       0.2700      9.0000E-02  4.5000E-02  4.5000E-02  4.5000E-02  4.5000E-02  4.5000E-02  4.5000E-02  4.5000E-02  9.0000E-02
       0.2700      0.2700      0.2700      0.2700      0.2700       0.000       0.000       0.000       0.000    
  43    0.000       0.000       0.000       0.000       0.000      1.8000E-02  1.8000E-02  1.8000E-02  3.6000E-02  3.6000E-02
       3.6000E-02  3.6000E-02  3.6000E-02  3.6000E-02  3.6000E-02  3.6000E-02  3.6000E-02  3.6000E-02  3.6000E-02  4.5000E-02
       4.5000E-02  4.5000E-02  0.2700      0.2700      0.2700      9.0000E-02  9.0000E-02  9.0000E-02  9.0000E-02  9.0000E-02
       9.0000E-02  9.0000E-02  9.0000E-02  9.0000E-02  0.2700      0.2700      0.2700      4.5000E-02  4.5000E-02  4.5000E-02
       4.5000E-02  4.5000E-02  4.5000E-02  9.0000E-02  0.2700      0.2700      4.5000E-02  4.5000E-02  4.5000E-02  4.5000E-02
       3.6000E-02  3.6000E-02  3.6000E-02  3.6000E-02  3.6000E-02  3.6000E-02  3.6000E-02  4.5000E-02  4.5000E-02  0.2700    
       0.2700      4.5000E-02  4.5000E-02  4.5000E-02  4.5000E-02  4.5000E-02  4.5000E-02  4.5000E-02  4.5000E-02  9.0000E-02
       0.2700      0.2700      0.2700      0.2700      9.0000E-02   0.000       0.000       0.000       0.000    
  44    0.000       0.000       0.000       0.000       0.000      1.8000E-02  1.8000E-02  1.8000E-02  1.8000E-02  3.6000E-02
       3.6000E-02  3.6000E-02  3.6000E-02  3.6000E-02  3.6000E-02  4.5000E-02  4.5000E-02  4.5000E-02  4.5000E-02  9.0000E-02
       9.0000E-02  0.2700      0.2700      9.0000E-02  9.0000E-02  9.0000E-02  9.0000E-02  9.0000E-02  9.0000E-02  9.0000E-02
       9.0000E-02  9.0000E-02  9.0000E-02  9.0000E-02  0.2700      0.2700      0.2700      4.5000E-02  4.5000E-02  4.5000E-02
       4.5000E-02  4.5000E-02  3.6000E-02  3.6000E-02  0.2700      0.2700      4.5000E-02  4.5000E-02  4.5000E-02  4.5000E-02
       4.5000E-02  3.6000E-02  1.8000E-02  1.8000E-02  1.8000E-02  3.6000E-02  3.6000E-02  4.5000E-02  4.5000E-02  9.0000E-02
       0.2700      4.5000E-02  4.5000E-02  4.5000E-02  4.5000E-02  4.5000E-02  4.5000E-02  4.5000E-02  4.5000E-02  9.0000E-02
       9.0000E-02  0.2700      0.2700      9.0000E-02  9.0000E-02   0.000       0.000       0.000       0.000    
  45    0.000       0.000       0.000      1.8000E-02  1.8000E-02  1.8000E-02  1.8000E-02  1.8000E-02  3.6000E-02  3.6000E-02
       3.6000E-02  3.6000E-02  3.6000E-02  3.6000E-02  9.0000E-02  9.0000E-02  9.0000E-02  9.0000E-02  9.0000E-02  0.2700    
       0.2700      0.2700      9.0000E-02  9.0000E-02  9.0000E-02  9.0000E-02  9.0000E-02  9.0000E-02  9.0000E-02  9.0000E-02
       9.0000E-02  9.0000E-02  9.0000E-02  9.0000E-02  0.2700      0.2700      0.2700      9.0000E-02  3.6000E-02  3.6000E-02
       3.6000E-02  3.6000E-02  3.6000E-02  3.6000E-02  0.2700      0.2700      4.5000E-02  4.5000E-02  1.8000E-02  1.8000E-02
       1.8000E-02  1.8000E-02  1.8000E-02  1.8000E-02  1.8000E-02  3.6000E-02  3.6000E-02  4.5000E-02  4.5000E-02  9.0000E-02
       0.2700      4.5000E-02  4.5000E-02  4.5000E-02  4.5000E-02  4.5000E-02  4.5000E-02  4.5000E-02  4.5000E-02  9.0000E-02
       9.0000E-02  0.2700      0.2700      4.5000E-02  3.6000E-02   0.000       0.000       0.000       0.000    
  46    0.000       0.000       0.000      1.8000E-02  1.8000E-02  1.8000E-02  1.8000E-02  1.8000E-02  3.6000E-02  3.6000E-02
       3.6000E-02  9.0000E-02  9.0000E-02  9.0000E-02  9.0000E-02  9.0000E-02  0.2700      0.2700      0.2700      0.2700    
       0.2700      9.0000E-02  9.0000E-02  9.0000E-02  9.0000E-02  9.0000E-02  9.0000E-02  9.0000E-02  9.0000E-02  9.0000E-02
       9.0000E-02  9.0000E-02  9.0000E-02  9.0000E-02  0.2700      0.2700      0.2700      4.5000E-02  3.6000E-02  3.6000E-02
       3.6000E-02  3.6000E-02  3.6000E-02  3.6000E-02  0.2700      0.2700      4.5000E-02  4.5000E-02  1.8000E-02  1.8000E-02
       1.8000E-02  1.8000E-02  1.8000E-02  1.8000E-02  1.8000E-02  3.6000E-02  3.6000E-02  4.5000E-02  4.5000E-02  9.0000E-02
       9.0000E-02  4.5000E-02  4.5000E-02  4.5000E-02  4.5000E-02  4.5000E-02  4.5000E-02  4.5000E-02  4.5000E-02  9.0000E-02
       9.0000E-02  0.2700      9.0000E-02  4.5000E-02  4.5000E-02   0.000       0.000       0.000       0.000    
  47    0.000       0.000       0.000      1.8000E-02  1.8000E-02  1.8000E-02  1.8000E-02  3.6000E-02  3.6000E-02  3.6000E-02
       3.6000E-02  9.0000E-02  9.0000E-02  9.0000E-02  0.2700      0.2700      0.2700      9.0000E-02  9.0000E-02  9.0000E-02
       9.0000E-02  9.0000E-02  9.0000E-02  9.0000E-02  9.0000E-02  9.0000E-02  9.0000E-02  9.0000E-02  9.0000E-02  4.5000E-02
       9.0000E-02  9.0000E-02  9.0000E-02  9.0000E-02  0.2700      0.2700      0.2700      4.5000E-02  3.6000E-02  3.6000E-02
       3.6000E-02  3.6000E-02  3.6000E-02  3.6000E-02  0.2700      0.2700      4.5000E-02  4.5000E-02  1.8000E-02  1.8000E-02
       1.8000E-02  1.8000E-02  1.8000E-02  1.8000E-02  1.8000E-02  3.6000E-02  3.6000E-02  3.6000E-02  4.5000E-02  4.5000E-02
       9.0000E-02  4.5000E-02  4.5000E-02  4.5000E-02  4.5000E-02  4.5000E-02  4.5000E-02  4.5000E-02  4.5000E-02  9.0000E-02
       9.0000E-02  0.2700      9.0000E-02  4.5000E-02  4.5000E-02   0.000       0.000       0.000       0.000    
  48    0.000       0.000       0.000      1.8000E-02  1.8000E-02  1.8000E-02  1.8000E-02  3.6000E-02  3.6000E-02  3.6000E-02
       3.6000E-02  9.0000E-02  0.2700      0.2700      0.2700      9.0000E-02  9.0000E-02  9.0000E-02  9.0000E-02  9.0000E-02
       9.0000E-02  9.0000E-02  9.0000E-02  9.0000E-02  4.5000E-02  4.5000E-02  4.5000E-02  4.5000E-02  4.5000E-02  4.5000E-02
       9.0000E-02  9.0000E-02  9.0000E-02  9.0000E-02  0.2700      0.2700      0.2700      0.2700      3.6000E-02  3.6000E-02
       3.6000E-02  3.6000E-02  3.6000E-02  3.6000E-02  0.2700      0.2700      4.5000E-02  4.5000E-02  4.5000E-02  1.8000E-02
       1.8000E-02  1.8000E-02  1.8000E-02  1.8000E-02  1.8000E-02  1.8000E-02  3.6000E-02  3.6000E-02  4.5000E-02  4.5000E-02
       9.0000E-02  9.0000E-02  4.5000E-02  4.5000E-02  4.5000E-02  4.5000E-02  4.5000E-02  4.5000E-02  4.5000E-02  9.0000E-02
       0.2700      0.2700      9.0000E-02  4.5000E-02  4.5000E-02  4.5000E-02   0.000       0.000       0.000    
  49    0.000       0.000       0.000      1.8000E-02  1.8000E-02  1.8000E-02  1.8000E-02  3.6000E-02  3.6000E-02  3.6000E-02
       9.0000E-02  0.2700      0.2700      9.0000E-02  9.0000E-02  9.0000E-02  9.0000E-02  9.0000E-02  9.0000E-02  4.5000E-02
       4.5000E-02  4.5000E-02  4.5000E-02  4.5000E-02  4.5000E-02  4.5000E-02  4.5000E-02  4.5000E-02  4.5000E-02  4.5000E-02
       9.0000E-02  9.0000E-02  9.0000E-02  9.0000E-02  0.2700      0.2700      0.2700      0.2700      0.2700      3.6000E-02
       3.6000E-02  3.6000E-02  3.6000E-02  3.6000E-02  3.6000E-02  0.2700      0.2700      9.0000E-02  4.5000E-02  1.8000E-02
       1.8000E-02  1.8000E-02  1.8000E-02  1.8000E-02  1.8000E-02  1.8000E-02  3.6000E-02  3.6000E-02  4.5000E-02  4.5000E-02
       9.0000E-02  9.0000E-02  4.5000E-02  4.5000E-02  4.5000E-02  4.5000E-02  4.5000E-02  4.5000E-02  4.5000E-02  9.0000E-02
       0.2700      0.2700      9.0000E-02  4.5000E-02  4.5000E-02  4.5000E-02   0.000       0.000       0.000    
  50    0.000       0.000       0.000      1.8000E-02  1.8000E-02  1.8000E-02  3.6000E-02  3.6000E-02  3.6000E-02  3.6000E-02
       0.2700      0.2700      0.2700      0.2700      9.0000E-02  4.5000E-02  4.5000E-02  4.5000E-02  4.5000E-02  4.5000E-02
       4.5000E-02  4.5000E-02  4.5000E-02  4.5000E-02  4.5000E-02  4.5000E-02  4.5000E-02  4.5000E-02  4.5000E-02  4.5000E-02
       4.5000E-02  9.0000E-02  9.0000E-02  9.0000E-02  9.0000E-02  0.2700      0.2700      0.2700      0.2700      0.2700    
       3.6000E-02  3.6000E-02  3.6000E-02  3.6000E-02  3.6000E-02  3.6000E-02  0.2700      0.2700      9.0000E-02  1.8000E-02
       1.8000E-02  1.8000E-02  1.8000E-02  1.8000E-02  1.8000E-02  1.8000E-02  3.6000E-02  3.6000E-02  4.5000E-02  4.5000E-02
       9.0000E-02  9.0000E-02  4.5000E-02  4.5000E-02  4.5000E-02  4.5000E-02  4.5000E-02  4.5000E-02  4.5000E-02  9.0000E-02
       0.2700      0.2700      9.0000E-02  9.0000E-02  4.5000E-02  4.5000E-02   0.000       0.000       0.000    
  51    0.000       0.000       0.000      1.8000E-02  1.8000E-02  3.6000E-02  3.6000E-02  3.6000E-02  3.6000E-02  0.2700    
       0.2700      0.2700      0.2700      9.0000E-02  9.0000E-02  3.6000E-02  3.6000E-02  4.5000E-02  4.5000E-02  4.5000E-02
       4.5000E-02  4.5000E-02  4.5000E-02  4.5000E-02  4.5000E-02  4.5000E-02  4.5000E-02  4.5000E-02  4.5000E-02  4.5000E-02
       4.5000E-02  9.0000E-02  9.0000E-02  9.0000E-02  9.0000E-02  0.2700      0.2700      0.2700      0.2700      0.2700    
       3.6000E-02  3.6000E-02  3.6000E-02  3.6000E-02  3.6000E-02  3.6000E-02  0.2700      0.2700      0.2700      1.8000E-02
       1.8000E-02  1.8000E-02  1.8000E-02  1.8000E-02  1.8000E-02  1.8000E-02  3.6000E-02  3.6000E-02  4.5000E-02  4.5000E-02
       9.0000E-02  9.0000E-02  9.0000E-02  4.5000E-02  4.5000E-02  4.5000E-02  4.5000E-02  4.5000E-02  4.5000E-02  9.0000E-02
       0.2700      0.2700      9.0000E-02  9.0000E-02  4.5000E-02  4.5000E-02   0.000       0.000       0.000    
  52    0.000       0.000      1.8000E-02  1.8000E-02  1.8000E-02  3.6000E-02  3.6000E-02  3.6000E-02  3.6000E-02  0.2700    
       0.2700      0.2700      9.0000E-02  3.6000E-02  3.6000E-02  3.6000E-02  3.6000E-02  3.6000E-02  3.6000E-02  4.5000E-02
       4.5000E-02  4.5000E-02  4.5000E-02  4.5000E-02  4.5000E-02  4.5000E-02  4.5000E-02  4.5000E-02  4.5000E-02  4.5000E-02
       4.5000E-02  9.0000E-02  9.0000E-02  9.0000E-02  9.0000E-02  0.2700      0.2700      0.2700      0.2700      0.2700    
       3.6000E-02  3.6000E-02  3.6000E-02  3.6000E-02  3.6000E-02  3.6000E-02  3.6000E-02  0.2700      0.2700      1.8000E-02
       1.8000E-02  1.8000E-02  1.8000E-02  1.8000E-02  1.8000E-02  1.8000E-02  3.6000E-02  3.6000E-02  3.6000E-02  4.5000E-02
       9.0000E-02  9.0000E-02  9.0000E-02  4.5000E-02  4.5000E-02  4.5000E-02  4.5000E-02  4.5000E-02  4.5000E-02  9.0000E-02
       0.2700      0.2700      0.2700      9.0000E-02  4.5000E-02  4.5000E-02   0.000       0.000       0.000    
  53    0.000       0.000      1.8000E-02  1.8000E-02  1.8000E-02  3.6000E-02  3.6000E-02  3.6000E-02  0.2700      0.2700    
       0.2700      9.0000E-02  3.6000E-02  3.6000E-02  3.6000E-02  3.6000E-02  3.6000E-02  3.6000E-02  3.6000E-02  3.6000E-02
       3.6000E-02  4.5000E-02  4.5000E-02  4.5000E-02  4.5000E-02  4.5000E-02  4.5000E-02  4.5000E-02  4.5000E-02  4.5000E-02
       4.5000E-02  9.0000E-02  9.0000E-02  9.0000E-02  9.0000E-02  0.2700      0.2700      0.2700      0.2700      3.6000E-02
       3.6000E-02  3.6000E-02  3.6000E-02  3.6000E-02  3.6000E-02  3.6000E-02  3.6000E-02  0.2700      9.0000E-02  0.2700    
       1.8000E-02  1.8000E-02  1.8000E-02  1.8000E-02  1.8000E-02  1.8000E-02  1.8000E-02  3.6000E-02  3.6000E-02  4.5000E-02
       9.0000E-02  9.0000E-02  9.0000E-02  4.5000E-02  4.5000E-02  4.5000E-02  4.5000E-02  4.5000E-02  4.5000E-02  9.0000E-02
       9.0000E-02  0.2700      0.2700      9.0000E-02  4.5000E-02  4.5000E-02  4.5000E-02   0.000       0.000    
  54    0.000       0.000      1.8000E-02  1.8000E-02  1.8000E-02  3.6000E-02  3.6000E-02  3.6000E-02  0.2700      0.2700    
       0.2700      3.6000E-02  3.6000E-02  3.6000E-02  3.6000E-02  3.6000E-02  3.6000E-02  3.6000E-02  3.6000E-02  3.6000E-02
       3.6000E-02  4.5000E-02  4.5000E-02  4.5000E-02  4.5000E-02  4.5000E-02  4.5000E-02  4.5000E-02  4.5000E-02  4.5000E-02
       4.5000E-02  9.0000E-02  9.0000E-02  9.0000E-02  9.0000E-02  0.2700      0.2700      0.2700      0.2700      4.5000E-02
       3.6000E-02  3.6000E-02  3.6000E-02  1.8000E-02  1.8000E-02  1.8000E-02  3.6000E-02  9.0000E-02  9.0000E-02  9.0000E-02
       1.8000E-02  1.8000E-02  1.8000E-02  1.8000E-02  1.8000E-02  1.8000E-02  1.8000E-02  3.6000E-02  3.6000E-02  4.5000E-02
       9.0000E-02  9.0000E-02  9.0000E-02  4.5000E-02  4.5000E-02  4.5000E-02  4.5000E-02  4.5000E-02  4.5000E-02  9.0000E-02
       9.0000E-02  9.0000E-02  9.0000E-02  9.0000E-02  4.5000E-02  4.5000E-02  4.5000E-02   0.000       0.000    
  55    0.000      1.8000E-02  1.8000E-02  1.8000E-02  3.6000E-02  3.6000E-02  3.6000E-02  9.0000E-02  9.0000E-02  9.0000E-02
       9.0000E-02  3.6000E-02  3.6000E-02  3.6000E-02  3.6000E-02  3.6000E-02  3.6000E-02  3.6000E-02  3.6000E-02  3.6000E-02
       3.6000E-02  3.6000E-02  4.5000E-02  4.5000E-02  4.5000E-02  4.5000E-02  4.5000E-02  4.5000E-02  4.5000E-02  4.5000E-02
       4.5000E-02  4.5000E-02  9.0000E-02  9.0000E-02  9.0000E-02  0.2700      0.2700      0.2700      0.2700      4.5000E-02
       3.6000E-02  1.8000E-02  1.8000E-02  1.8000E-02  1.8000E-02  1.8000E-02  3.6000E-02  9.0000E-02  9.0000E-02  9.0000E-02
       1.8000E-02  1.8000E-02  1.8000E-02  1.8000E-02  1.8000E-02  1.8000E-02  1.8000E-02  3.6000E-02  3.6000E-02  4.5000E-02
       9.0000E-02  9.0000E-02  9.0000E-02  4.5000E-02  4.5000E-02  4.5000E-02  4.5000E-02  4.5000E-02  4.5000E-02  9.0000E-02
       9.0000E-02  9.0000E-02  9.0000E-02  9.0000E-02  9.0000E-02  4.5000E-02  4.5000E-02   0.000       0.000    
  56    0.000      1.8000E-02  1.8000E-02  3.6000E-02  3.6000E-02  3.6000E-02  9.0000E-02  9.0000E-02  9.0000E-02  9.0000E-02
       9.0000E-02  3.6000E-02  3.6000E-02  3.6000E-02  3.6000E-02  3.6000E-02  3.6000E-02  3.6000E-02  3.6000E-02  3.6000E-02
       3.6000E-02  3.6000E-02  3.6000E-02  4.5000E-02  4.5000E-02  4.5000E-02  4.5000E-02  4.5000E-02  4.5000E-02  4.5000E-02
       4.5000E-02  4.5000E-02  9.0000E-02  9.0000E-02  9.0000E-02  0.2700      0.2700      0.2700      0.2700      4.5000E-02
       3.6000E-02  1.8000E-02  1.8000E-02  1.8000E-02  1.8000E-02  1.8000E-02  3.6000E-02  9.0000E-02  9.0000E-02  9.0000E-02
       1.8000E-02  1.8000E-02  1.8000E-02  1.8000E-02  1.8000E-02  1.8000E-02  1.8000E-02  3.6000E-02  3.6000E-02  4.5000E-02
       9.0000E-02  9.0000E-02  9.0000E-02  4.5000E-02  4.5000E-02  3.6000E-02  3.6000E-02  3.6000E-02  4.5000E-02  4.5000E-02
       9.0000E-02  9.0000E-02  9.0000E-02  9.0000E-02  9.0000E-02  4.5000E-02  4.5000E-02   0.000       0.000    
  57   1.8000E-02  1.8000E-02  3.6000E-02  3.6000E-02  3.6000E-02  9.0000E-02  9.0000E-02  9.0000E-02  9.0000E-02  3.6000E-02
       3.6000E-02  3.6000E-02  3.6000E-02  3.6000E-02  3.6000E-02  3.6000E-02  3.6000E-02  3.6000E-02  3.6000E-02  3.6000E-02
       3.6000E-02  3.6000E-02  3.6000E-02  3.6000E-02  3.6000E-02  3.6000E-02  4.5000E-02  4.5000E-02  4.5000E-02  4.5000E-02
       4.5000E-02  4.5000E-02  9.0000E-02  9.0000E-02  9.0000E-02  0.2700      0.2700      0.2700      4.5000E-02  4.5000E-02
       3.6000E-02  1.8000E-02  1.8000E-02  1.8000E-02  1.8000E-02  1.8000E-02  3.6000E-02  9.0000E-02  9.0000E-02  9.0000E-02
       1.8000E-02  1.8000E-02  1.8000E-02  1.8000E-02  1.8000E-02  1.8000E-02  1.8000E-02  3.6000E-02  3.6000E-02  3.6000E-02
       4.5000E-02  9.0000E-02  9.0000E-02  4.5000E-02  4.5000E-02  3.6000E-02  3.6000E-02  3.6000E-02  4.5000E-02  4.5000E-02
       9.0000E-02  9.0000E-02  4.5000E-02  4.5000E-02  4.5000E-02  4.5000E-02  4.5000E-02   0.000       0.000    
  58   1.8000E-02  1.8000E-02  3.6000E-02  3.6000E-02  3.6000E-02  9.0000E-02  3.6000E-02  3.6000E-02  3.6000E-02  3.6000E-02
       3.6000E-02  3.6000E-02  3.6000E-02  3.6000E-02  3.6000E-02  3.6000E-02  1.8000E-02  3.6000E-02  3.6000E-02  3.6000E-02
       3.6000E-02  3.6000E-02  3.6000E-02  3.6000E-02  3.6000E-02  3.6000E-02  3.6000E-02  4.5000E-02  4.5000E-02  4.5000E-02
       4.5000E-02  4.5000E-02  9.0000E-02  9.0000E-02  9.0000E-02  0.2700      0.2700      0.2700      4.5000E-02  4.5000E-02
       3.6000E-02  1.8000E-02  1.8000E-02  1.8000E-02  1.8000E-02  1.8000E-02  1.8000E-02  3.6000E-02  9.0000E-02  9.0000E-02
       9.0000E-02  4.5000E-02  3.6000E-02  1.8000E-02  1.8000E-02  1.8000E-02  1.8000E-02  3.6000E-02  3.6000E-02  3.6000E-02
       4.5000E-02  9.0000E-02  4.5000E-02  4.5000E-02  4.5000E-02  3.6000E-02  3.6000E-02  3.6000E-02  4.5000E-02  9.0000E-02
       9.0000E-02  9.0000E-02  4.5000E-02  4.5000E-02  4.5000E-02  4.5000E-02  4.5000E-02   0.000       0.000    
  59   1.8000E-02  1.8000E-02  3.6000E-02  3.6000E-02  3.6000E-02  3.6000E-02  3.6000E-02  3.6000E-02  3.6000E-02  3.6000E-02
       3.6000E-02  1.8000E-02  1.8000E-02  1.8000E-02  1.8000E-02  1.8000E-02  1.8000E-02  3.6000E-02  3.6000E-02  3.6000E-02
       3.6000E-02  3.6000E-02  3.6000E-02  3.6000E-02  3.6000E-02  3.6000E-02  3.6000E-02  3.6000E-02  4.5000E-02  4.5000E-02
       4.5000E-02  4.5000E-02  9.0000E-02  9.0000E-02  9.0000E-02  9.0000E-02  0.2700      0.2700      0.2700      4.5000E-02
       3.6000E-02  3.6000E-02  1.8000E-02  1.8000E-02  1.8000E-02  1.8000E-02  1.8000E-02  3.6000E-02  9.0000E-02  3.6000E-02
       9.0000E-02  4.5000E-02  3.6000E-02  1.8000E-02  1.8000E-02  1.8000E-02  1.8000E-02  3.6000E-02  3.6000E-02  3.6000E-02
       4.5000E-02  4.5000E-02  4.5000E-02  3.6000E-02  3.6000E-02  3.6000E-02  3.6000E-02  3.6000E-02  4.5000E-02  9.0000E-02
       9.0000E-02  9.0000E-02  4.5000E-02  4.5000E-02  4.5000E-02  4.5000E-02  4.5000E-02  4.5000E-02   0.000    
  60    0.000      1.8000E-02  1.8000E-02  3.6000E-02  3.6000E-02  3.6000E-02  1.8000E-02  1.8000E-02  1.8000E-02  1.8000E-02
       1.8000E-02  1.8000E-02  1.8000E-02   0.000       0.000       0.000      1.8000E-02  1.8000E-02  3.6000E-02  3.6000E-02
       3.6000E-02  3.6000E-02  3.6000E-02  3.6000E-02  3.6000E-02  3.6000E-02  3.6000E-02  3.6000E-02  3.6000E-02  4.5000E-02
       4.5000E-02  4.5000E-02  4.5000E-02  9.0000E-02  9.0000E-02  9.0000E-02  0.2700      0.2700      0.2700      4.5000E-02
       3.6000E-02  3.6000E-02  1.8000E-02  1.8000E-02  1.8000E-02  1.8000E-02  1.8000E-02  3.6000E-02  3.6000E-02  3.6000E-02
       9.0000E-02  4.5000E-02  3.6000E-02  1.8000E-02  3.6000E-02  3.6000E-02  3.6000E-02  3.6000E-02  3.6000E-02  4.5000E-02
       4.5000E-02  4.5000E-02  3.6000E-02  3.6000E-02  3.6000E-02  3.6000E-02  3.6000E-02  3.6000E-02  4.5000E-02  9.0000E-02
       9.0000E-02  4.5000E-02  4.5000E-02  4.5000E-02  4.5000E-02  4.5000E-02  4.5000E-02  4.5000E-02  4.5000E-02
  61    0.000       0.000      1.8000E-02  1.8000E-02  1.8000E-02  1.8000E-02  1.8000E-02  1.8000E-02  1.8000E-02  1.8000E-02
       1.8000E-02   0.000       0.000       0.000       0.000       0.000       0.000      1.8000E-02  1.8000E-02  3.6000E-02
       3.6000E-02  3.6000E-02  3.6000E-02  3.6000E-02  3.6000E-02  3.6000E-02  3.6000E-02  3.6000E-02  3.6000E-02  3.6000E-02
       4.5000E-02  4.5000E-02  4.5000E-02  9.0000E-02  9.0000E-02  9.0000E-02  0.2700      0.2700      0.2700      4.5000E-02
       3.6000E-02  3.6000E-02  1.8000E-02  1.8000E-02  1.8000E-02  1.8000E-02  1.8000E-02  1.8000E-02  3.6000E-02  3.6000E-02
       9.0000E-02  9.0000E-02  3.6000E-02  3.6000E-02  3.6000E-02  3.6000E-02  3.6000E-02  3.6000E-02  3.6000E-02  3.6000E-02
       3.6000E-02  3.6000E-02  3.6000E-02  3.6000E-02  3.6000E-02  3.6000E-02  3.6000E-02  3.6000E-02  4.5000E-02  9.0000E-02
       9.0000E-02  4.5000E-02  4.5000E-02  4.5000E-02  4.5000E-02  4.5000E-02  4.5000E-02  4.5000E-02  4.5000E-02
  62    0.000       0.000       0.000      1.8000E-02   0.000       0.000       0.000       0.000       0.000       0.000    
        0.000       0.000       0.000       0.000       0.000       0.000       0.000       0.000       0.000      1.8000E-02
       3.6000E-02  3.6000E-02  3.6000E-02  3.6000E-02  3.6000E-02  3.6000E-02  3.6000E-02  3.6000E-02  3.6000E-02  3.6000E-02
       4.5000E-02  4.5000E-02  4.5000E-02  9.0000E-02  9.0000E-02  9.0000E-02  0.2700      0.2700      9.0000E-02  4.5000E-02
       3.6000E-02  3.6000E-02  1.8000E-02  1.8000E-02  1.8000E-02  1.8000E-02  1.8000E-02  1.8000E-02  3.6000E-02  3.6000E-02
       3.6000E-02  3.6000E-02  9.0000E-02  3.6000E-02  3.6000E-02  3.6000E-02  3.6000E-02  3.6000E-02  3.6000E-02  3.6000E-02
       3.6000E-02  3.6000E-02  3.6000E-02  3.6000E-02  3.6000E-02  3.6000E-02  3.6000E-02  3.6000E-02  4.5000E-02  9.0000E-02
       4.5000E-02  4.5000E-02  4.5000E-02  4.5000E-02  4.5000E-02  4.5000E-02  4.5000E-02  3.6000E-02  3.6000E-02
  63    0.000       0.000       0.000       0.000       0.000       0.000       0.000       0.000       0.000       0.000    
        0.000       0.000       0.000       0.000       0.000       0.000       0.000       0.000       0.000      1.8000E-02
       1.8000E-02  1.8000E-02  3.6000E-02  3.6000E-02  3.6000E-02  3.6000E-02  3.6000E-02  3.6000E-02  3.6000E-02  3.6000E-02
       3.6000E-02  4.5000E-02  4.5000E-02  9.0000E-02  9.0000E-02  9.0000E-02  0.2700      0.2700      9.0000E-02  4.5000E-02
       4.5000E-02  3.6000E-02  3.6000E-02  1.8000E-02  1.8000E-02  1.8000E-02  1.8000E-02  1.8000E-02  1.8000E-02  1.8000E-02
       3.6000E-02  3.6000E-02  9.0000E-02  9.0000E-02  3.6000E-02  3.6000E-02  3.6000E-02  3.6000E-02  3.6000E-02  3.6000E-02
       3.6000E-02  3.6000E-02  3.6000E-02  3.6000E-02  3.6000E-02  3.6000E-02  3.6000E-02  3.6000E-02  4.5000E-02  4.5000E-02
       4.5000E-02  4.5000E-02  4.5000E-02  4.5000E-02  4.5000E-02  4.5000E-02  4.5000E-02  3.6000E-02  3.6000E-02
  64    0.000       0.000       0.000       0.000       0.000       0.000       0.000       0.000       0.000       0.000    
        0.000       0.000       0.000       0.000       0.000       0.000       0.000       0.000       0.000       0.000    
        0.000       0.000       0.000       0.000      3.6000E-02  3.6000E-02  3.6000E-02  3.6000E-02  3.6000E-02  3.6000E-02
       3.6000E-02  3.6000E-02  4.5000E-02  4.5000E-02  9.0000E-02  9.0000E-02  9.0000E-02  0.2700      0.2700      9.0000E-02
       3.6000E-02  3.6000E-02  3.6000E-02  1.8000E-02  1.8000E-02  1.8000E-02  1.8000E-02  1.8000E-02  1.8000E-02  1.8000E-02
       3.6000E-02  3.6000E-02  4.5000E-02  9.0000E-02  3.6000E-02  3.6000E-02  3.6000E-02  3.6000E-02  3.6000E-02  3.6000E-02
       3.6000E-02  3.6000E-02  3.6000E-02  3.6000E-02  3.6000E-02  3.6000E-02  3.6000E-02  4.5000E-02  4.5000E-02  4.5000E-02
       4.5000E-02  4.5000E-02  4.5000E-02  4.5000E-02  4.5000E-02  4.5000E-02  3.6000E-02  3.6000E-02  3.6000E-02
  65    0.000       0.000       0.000       0.000       0.000       0.000       0.000       0.000       0.000       0.000    
        0.000       0.000       0.000       0.000       0.000       0.000       0.000       0.000       0.000       0.000    
        0.000       0.000       0.000       0.000       0.000       0.000       0.000       0.000       0.000       0.000    
        0.000       0.000       0.000      4.5000E-02  9.0000E-02  9.0000E-02  9.0000E-02  9.0000E-02  9.0000E-02  9.0000E-02
       3.6000E-02  3.6000E-02  3.6000E-02  1.8000E-02  1.8000E-02   0.000       0.000       0.000       0.000      1.8000E-02
       1.8000E-02  3.6000E-02  4.5000E-02  4.5000E-02  3.6000E-02  3.6000E-02  3.6000E-02  3.6000E-02  3.6000E-02  3.6000E-02
       3.6000E-02  3.6000E-02  3.6000E-02  3.6000E-02  3.6000E-02  3.6000E-02  3.6000E-02  4.5000E-02  4.5000E-02  4.5000E-02
       4.5000E-02  4.5000E-02  4.5000E-02  4.5000E-02  4.5000E-02  4.5000E-02  4.5000E-02  3.6000E-02  3.6000E-02
  66    0.000       0.000       0.000       0.000       0.000       0.000       0.000       0.000       0.000       0.000    
        0.000       0.000       0.000       0.000       0.000       0.000       0.000       0.000       0.000       0.000    
        0.000       0.000       0.000       0.000       0.000       0.000       0.000       0.000       0.000       0.000    
        0.000       0.000       0.000       0.000       0.000      4.5000E-02  4.5000E-02   0.000       0.000       0.000    
        0.000       0.000       0.000       0.000       0.000       0.000       0.000       0.000       0.000       0.000    
       1.8000E-02  3.6000E-02  4.5000E-02  4.5000E-02  4.5000E-02  3.6000E-02  3.6000E-02  3.6000E-02  3.6000E-02  3.6000E-02
       3.6000E-02  3.6000E-02  3.6000E-02  3.6000E-02  3.6000E-02  3.6000E-02  3.6000E-02  3.6000E-02  4.5000E-02  4.5000E-02
       4.5000E-02  4.5000E-02  4.5000E-02  4.5000E-02  4.5000E-02  4.5000E-02  4.5000E-02  3.6000E-02  3.6000E-02
  67    0.000       0.000       0.000       0.000       0.000       0.000       0.000       0.000       0.000       0.000    
        0.000       0.000       0.000       0.000       0.000       0.000       0.000       0.000       0.000       0.000    
        0.000       0.000       0.000       0.000       0.000       0.000       0.000       0.000       0.000       0.000    
        0.000       0.000       0.000       0.000       0.000       0.000       0.000       0.000       0.000       0.000    
        0.000       0.000       0.000       0.000       0.000       0.000       0.000       0.000       0.000       0.000    
        0.000       0.000      1.8000E-02  4.5000E-02  3.6000E-02  3.6000E-02  3.6000E-02  3.6000E-02  3.6000E-02  1.8000E-02
       1.8000E-02  1.8000E-02  1.8000E-02  1.8000E-02  3.6000E-02  3.6000E-02  3.6000E-02  3.6000E-02  4.5000E-02  4.5000E-02
       4.5000E-02   0.000       0.000       0.000       0.000       0.000       0.000       0.000       0.000    
  68    0.000       0.000       0.000       0.000       0.000       0.000       0.000       0.000       0.000       0.000    
        0.000       0.000       0.000       0.000       0.000       0.000       0.000       0.000       0.000       0.000    
        0.000       0.000       0.000       0.000       0.000       0.000       0.000       0.000       0.000       0.000    
        0.000       0.000       0.000       0.000       0.000       0.000       0.000       0.000       0.000       0.000    
        0.000       0.000       0.000       0.000       0.000       0.000       0.000       0.000       0.000       0.000    
        0.000       0.000       0.000      1.8000E-02  3.6000E-02  3.6000E-02  3.6000E-02  1.8000E-02  1.8000E-02  1.8000E-02
       1.8000E-02  1.8000E-02  1.8000E-02  1.8000E-02  3.6000E-02  3.6000E-02  3.6000E-02  4.5000E-02   0.000       0.000    
        0.000       0.000       0.000       0.000       0.000       0.000       0.000       0.000       0.000    
  69    0.000       0.000       0.000       0.000       0.000       0.000       0.000       0.000       0.000       0.000    
        0.000       0.000       0.000       0.000       0.000       0.000       0.000       0.000       0.000       0.000    
        0.000       0.000       0.000       0.000       0.000       0.000       0.000       0.000       0.000       0.000    
        0.000       0.000       0.000       0.000       0.000       0.000       0.000       0.000       0.000       0.000    
        0.000       0.000       0.000       0.000       0.000       0.000       0.000       0.000       0.000       0.000    
        0.000       0.000       0.000       0.000       0.000       0.000       0.000       0.000       0.000       0.000    
       1.8000E-02  1.8000E-02  1.8000E-02  1.8000E-02  4.5000E-02  4.5000E-02  4.5000E-02   0.000       0.000       0.000    
        0.000       0.000       0.000       0.000       0.000       0.000       0.000       0.000       0.000    
  70    0.000       0.000       0.000       0.000       0.000       0.000       0.000       0.000       0.000       0.000    
        0.000       0.000       0.000       0.000       0.000       0.000       0.000       0.000       0.000       0.000    
        0.000       0.000       0.000       0.000       0.000       0.000       0.000       0.000       0.000       0.000    
        0.000       0.000       0.000       0.000       0.000       0.000       0.000       0.000       0.000       0.000    
        0.000       0.000       0.000       0.000       0.000       0.000       0.000       0.000       0.000       0.000    
        0.000       0.000       0.000       0.000       0.000       0.000       0.000       0.000       0.000       0.000    
        0.000      1.8000E-02  1.8000E-02  1.8000E-02  4.5000E-02  4.5000E-02   0.000       0.000       0.000       0.000    
        0.000       0.000       0.000       0.000       0.000       0.000       0.000       0.000       0.000    
  71    0.000       0.000       0.000       0.000       0.000       0.000       0.000       0.000       0.000       0.000    
        0.000       0.000       0.000       0.000       0.000       0.000       0.000       0.000       0.000       0.000    
        0.000       0.000       0.000       0.000       0.000       0.000       0.000       0.000       0.000       0.000    
        0.000       0.000       0.000       0.000       0.000       0.000       0.000       0.000       0.000       0.000    
        0.000       0.000       0.000       0.000       0.000       0.000       0.000       0.000       0.000       0.000    
        0.000       0.000       0.000       0.000       0.000       0.000       0.000       0.000       0.000       0.000    
        0.000       0.000      1.8000E-02  3.6000E-02   0.000       0.000       0.000       0.000       0.000       0.000    
        0.000       0.000       0.000       0.000       0.000       0.000       0.000       0.000       0.000    



            LAND SURFACE VERTICAL K
 READING ON UNIT   14 WITH FORMAT: (FREE)              

            1           2           3           4           5           6           7           8           9          10
           11          12          13          14          15          16          17          18          19          20
           21          22          23          24          25          26          27          28          29          30
           31          32          33          34          35          36          37          38          39          40
           41          42          43          44          45          46          47          48          49          50
           51          52          53          54          55          56          57          58          59          60
           61          62          63          64          65          66          67          68          69          70
           71          72          73          74          75          76          77          78          79
 ........................................................................................................................
   1    0.000       0.000       0.000       0.000       0.000       0.000       0.000       0.000       0.000       0.000    
        0.000       0.000       0.000       0.000       0.000       0.000       0.000       0.000       0.000       0.000    
        0.000       0.000       0.000       0.000       0.000       0.000       0.000       0.000       0.000       0.000    
        0.000       0.000       0.000       0.000       0.000       0.000       0.000       0.000       0.000       0.000    
        0.000       0.000       0.000       0.000       0.000       0.000       0.000       0.000       0.000       0.000    
        0.000      1.0000E-03  1.0000E-03   0.000       0.000       0.000       0.000       0.000       0.000       0.000    
        0.000       0.000       0.000       0.000       0.000       0.000       0.000       0.000       0.000       0.000    
        0.000       0.000       0.000       0.000       0.000       0.000       0.000       0.000       0.000    
   2    0.000       0.000       0.000       0.000       0.000       0.000       0.000       0.000       0.000       0.000    
        0.000       0.000       0.000       0.000       0.000       0.000       0.000       0.000       0.000       0.000    
        0.000       0.000       0.000       0.000       0.000       0.000       0.000       0.000       0.000       0.000    
        0.000       0.000       0.000       0.000       0.000       0.000       0.000       0.000       0.000       0.000    
        0.000       0.000       0.000       0.000       0.000       0.000       0.000       0.000       0.000       0.000    
        0.000      1.0000E-03  2.5000E-03  2.5000E-03   0.000       0.000       0.000       0.000       0.000       0.000    
        0.000       0.000       0.000       0.000       0.000       0.000       0.000       0.000       0.000       0.000    
        0.000       0.000       0.000       0.000       0.000       0.000       0.000       0.000       0.000    
   3    0.000       0.000       0.000       0.000       0.000       0.000       0.000       0.000       0.000       0.000    
        0.000       0.000       0.000       0.000       0.000       0.000       0.000       0.000       0.000       0.000    
        0.000       0.000       0.000       0.000       0.000       0.000       0.000       0.000       0.000       0.000    
        0.000       0.000       0.000       0.000       0.000       0.000       0.000       0.000       0.000       0.000    
        0.000       0.000       0.000       0.000       0.000       0.000       0.000       0.000       0.000       0.000    
        0.000      1.0000E-03  2.5000E-03  5.0000E-03   0.000       0.000       0.000       0.000       0.000       0.000    
        0.000       0.000       0.000       0.000       0.000       0.000       0.000       0.000       0.000       0.000    
        0.000       0.000       0.000       0.000       0.000       0.000       0.000       0.000       0.000    
   4    0.000       0.000       0.000       0.000       0.000       0.000       0.000       0.000       0.000       0.000    
        0.000       0.000       0.000       0.000       0.000       0.000       0.000       0.000       0.000       0.000    
        0.000       0.000       0.000       0.000       0.000       0.000       0.000       0.000       0.000       0.000    
        0.000       0.000       0.000       0.000       0.000       0.000       0.000       0.000       0.000       0.000    
        0.000       0.000       0.000       0.000       0.000       0.000       0.000       0.000       0.000       0.000    
        0.000      2.5000E-03  2.5000E-03  5.0000E-03  5.0000E-03   0.000       0.000       0.000       0.000       0.000    
        0.000       0.000       0.000       0.000       0.000       0.000       0.000       0.000       0.000       0.000    
        0.000       0.000       0.000       0.000       0.000       0.000       0.000       0.000       0.000    
   5    0.000       0.000       0.000       0.000       0.000       0.000       0.000       0.000       0.000       0.000    
        0.000       0.000       0.000       0.000       0.000       0.000       0.000       0.000       0.000       0.000    
        0.000       0.000       0.000       0.000       0.000       0.000       0.000       0.000       0.000       0.000    
        0.000       0.000       0.000       0.000       0.000       0.000       0.000       0.000       0.000       0.000    
        0.000       0.000       0.000       0.000       0.000       0.000       0.000       0.000       0.000       0.000    
        0.000      2.5000E-03  2.5000E-03  2.5000E-03  5.0000E-03  2.5000E-03  2.5000E-03   0.000       0.000       0.000    
        0.000       0.000       0.000       0.000       0.000       0.000       0.000       0.000       0.000       0.000    
        0.000       0.000       0.000       0.000       0.000       0.000       0.000       0.000       0.000    
   6    0.000       0.000       0.000       0.000       0.000       0.000       0.000       0.000       0.000       0.000    
        0.000       0.000       0.000       0.000       0.000       0.000       0.000       0.000       0.000       0.000    
        0.000       0.000       0.000       0.000       0.000       0.000       0.000       0.000       0.000       0.000    
        0.000       0.000       0.000       0.000       0.000       0.000       0.000       0.000       0.000       0.000    
        0.000       0.000       0.000       0.000       0.000       0.000       0.000       0.000       0.000       0.000    
        0.000      2.5000E-03  2.5000E-03  2.5000E-03  5.0000E-03  5.0000E-03  2.5000E-03  2.5000E-03  2.5000E-03   0.000    
        0.000       0.000       0.000      2.5000E-03  2.5000E-03   0.000       0.000       0.000       0.000       0.000    
        0.000       0.000       0.000       0.000       0.000       0.000       0.000       0.000       0.000    
   7    0.000       0.000       0.000       0.000       0.000       0.000       0.000       0.000       0.000       0.000    
        0.000       0.000       0.000       0.000       0.000       0.000       0.000       0.000       0.000       0.000    
        0.000       0.000       0.000       0.000       0.000       0.000       0.000       0.000       0.000       0.000    
        0.000       0.000       0.000       0.000       0.000       0.000       0.000       0.000       0.000       0.000    
        0.000       0.000       0.000       0.000       0.000       0.000       0.000       0.000       0.000       0.000    
        0.000      2.5000E-03  2.5000E-03  2.5000E-03  5.0000E-03  5.0000E-03  5.0000E-03  2.5000E-03  2.5000E-03  2.5000E-03
       2.5000E-03  2.5000E-03  2.5000E-03  2.5000E-03  2.5000E-03  2.5000E-03   0.000       0.000       0.000       0.000    
        0.000       0.000       0.000       0.000       0.000       0.000       0.000       0.000       0.000    
   8    0.000       0.000       0.000       0.000       0.000       0.000       0.000       0.000       0.000       0.000    
        0.000       0.000       0.000       0.000       0.000       0.000       0.000       0.000       0.000       0.000    
        0.000       0.000       0.000       0.000       0.000       0.000       0.000       0.000       0.000       0.000    
        0.000       0.000       0.000       0.000       0.000       0.000       0.000       0.000       0.000       0.000    
        0.000       0.000       0.000       0.000       0.000       0.000       0.000       0.000       0.000       0.000    
        0.000      2.5000E-03  2.5000E-03  2.5000E-03  5.0000E-03  5.0000E-03  5.0000E-03  2.5000E-03  2.5000E-03  2.5000E-03
       2.5000E-03  2.5000E-03  2.5000E-03  2.5000E-03  2.5000E-03  2.5000E-03  2.5000E-03  2.5000E-03   0.000       0.000    
        0.000       0.000       0.000       0.000       0.000       0.000       0.000       0.000       0.000    
   9    0.000       0.000       0.000       0.000       0.000       0.000       0.000       0.000       0.000       0.000    
        0.000       0.000       0.000       0.000       0.000       0.000       0.000       0.000       0.000       0.000    
        0.000       0.000       0.000       0.000       0.000       0.000       0.000       0.000       0.000       0.000    
        0.000       0.000       0.000       0.000       0.000       0.000       0.000       0.000       0.000       0.000    
        0.000       0.000       0.000       0.000       0.000       0.000       0.000       0.000       0.000       0.000    
       2.0000E-03  2.5000E-03  2.5000E-03  2.5000E-03  5.0000E-03  5.0000E-03  5.0000E-03  2.5000E-03  2.5000E-03  2.5000E-03
       2.5000E-03  2.5000E-03  2.5000E-03  2.5000E-03  2.5000E-03  2.5000E-03  2.5000E-03  2.5000E-03  2.5000E-03   0.000    
        0.000       0.000       0.000       0.000       0.000       0.000       0.000       0.000       0.000    
  10    0.000       0.000       0.000       0.000       0.000       0.000       0.000       0.000       0.000       0.000    
        0.000       0.000       0.000       0.000       0.000       0.000       0.000       0.000       0.000       0.000    
        0.000       0.000       0.000       0.000       0.000       0.000       0.000       0.000       0.000       0.000    
        0.000       0.000       0.000       0.000       0.000       0.000       0.000       0.000       0.000       0.000    
        0.000       0.000       0.000       0.000       0.000       0.000       0.000       0.000       0.000      2.5000E-03
       2.5000E-03  2.5000E-03  2.5000E-03  2.5000E-03  2.5000E-03  5.0000E-03  5.0000E-03  5.0000E-03  2.5000E-03  2.5000E-03
       2.5000E-03  2.5000E-03  2.5000E-03  2.5000E-03  2.5000E-03  2.5000E-03  2.5000E-03  2.5000E-03  2.5000E-03  2.5000E-03
        0.000       0.000       0.000       0.000       0.000       0.000       0.000       0.000       0.000    
  11    0.000       0.000       0.000       0.000       0.000       0.000       0.000       0.000       0.000       0.000    
        0.000       0.000       0.000       0.000       0.000       0.000       0.000       0.000       0.000       0.000    
        0.000       0.000       0.000       0.000       0.000       0.000       0.000       0.000       0.000       0.000    
        0.000       0.000       0.000       0.000       0.000       0.000       0.000       0.000       0.000       0.000    
        0.000       0.000       0.000       0.000       0.000       0.000       0.000       0.000      2.5000E-03  2.5000E-03
       2.5000E-03  2.5000E-03  2.5000E-03  2.5000E-03  2.5000E-03  5.0000E-03  5.0000E-03  5.0000E-03  2.5000E-03  2.5000E-03
       2.5000E-03  2.5000E-03  2.5000E-03  2.5000E-03  2.5000E-03  2.5000E-03  2.5000E-03  2.5000E-03  2.5000E-03  2.5000E-03
       2.5000E-03   0.000       0.000       0.000       0.000       0.000       0.000       0.000       0.000    
  12    0.000       0.000       0.000       0.000       0.000       0.000       0.000       0.000       0.000       0.000    
        0.000       0.000       0.000       0.000       0.000       0.000       0.000       0.000       0.000       0.000    
        0.000       0.000       0.000       0.000       0.000       0.000       0.000       0.000       0.000       0.000    
        0.000       0.000       0.000       0.000       0.000       0.000       0.000       0.000       0.000       0.000    
        0.000      2.0000E-03  2.0000E-03   0.000       0.000       0.000       0.000      2.0000E-03  2.5000E-03  2.5000E-03
       2.5000E-03  2.5000E-03  2.5000E-03  2.5000E-03  2.5000E-03  5.0000E-03  5.0000E-03  5.0000E-03  2.5000E-03  2.5000E-03
       2.5000E-03  2.5000E-03  2.5000E-03  2.5000E-03  2.5000E-03  2.5000E-03  2.5000E-03  2.5000E-03  2.5000E-03  2.5000E-03
       2.5000E-03   0.000       0.000       0.000       0.000       0.000       0.000       0.000       0.000    
  13    0.000       0.000       0.000       0.000       0.000       0.000       0.000       0.000       0.000       0.000    
        0.000       0.000       0.000       0.000       0.000       0.000       0.000       0.000       0.000       0.000    
        0.000       0.000       0.000       0.000       0.000       0.000       0.000       0.000       0.000       0.000    
        0.000       0.000       0.000       0.000       0.000       0.000       0.000       0.000      2.0000E-03  2.0000E-03
       2.0000E-03  2.0000E-03  2.0000E-03  2.0000E-03  2.0000E-03  2.0000E-03  2.0000E-03  2.0000E-03  2.5000E-03  2.5000E-03
       2.5000E-03  2.5000E-03  2.5000E-03  2.5000E-03  2.5000E-03  5.0000E-03  5.0000E-03  5.0000E-03  2.5000E-03  2.5000E-03
       2.5000E-03  2.5000E-03  2.5000E-03  2.5000E-03  2.5000E-03  2.5000E-03  2.5000E-03  2.5000E-03  2.5000E-03  2.5000E-03
       2.5000E-03  2.5000E-03   0.000       0.000       0.000       0.000       0.000       0.000       0.000    
  14    0.000       0.000       0.000       0.000       0.000       0.000       0.000       0.000       0.000       0.000    
        0.000       0.000       0.000       0.000       0.000       0.000       0.000       0.000       0.000       0.000    
        0.000       0.000       0.000       0.000       0.000       0.000       0.000       0.000       0.000       0.000    
        0.000       0.000       0.000       0.000       0.000       0.000       0.000       0.000      2.0000E-03  2.0000E-03
       2.0000E-03  2.0000E-03  2.0000E-03  2.0000E-03  2.5000E-03  2.5000E-03  2.5000E-03  2.5000E-03  2.5000E-03  2.5000E-03
       2.5000E-03  2.5000E-03  2.5000E-03  2.5000E-03  2.5000E-03  5.0000E-03  5.0000E-03  5.0000E-03  5.0000E-03  5.0000E-03
       2.5000E-03  2.5000E-03  2.5000E-03  2.5000E-03  2.5000E-03  2.5000E-03  2.5000E-03  5.0000E-03  2.5000E-03  2.5000E-03
       2.5000E-03  2.5000E-03  2.5000E-03   0.000       0.000       0.000       0.000       0.000       0.000    
  15    0.000       0.000       0.000       0.000       0.000       0.000       0.000       0.000       0.000       0.000    
        0.000       0.000       0.000       0.000       0.000       0.000       0.000       0.000       0.000       0.000    
        0.000       0.000       0.000       0.000       0.000       0.000       0.000       0.000       0.000       0.000    
        0.000       0.000       0.000       0.000       0.000       0.000       0.000      2.0000E-03  2.0000E-03  2.0000E-03
       2.5000E-03  2.5000E-03  2.5000E-03  2.5000E-03  2.5000E-03  2.5000E-03  2.5000E-03  2.5000E-03  2.5000E-03  2.5000E-03
       2.5000E-03  2.5000E-03  2.5000E-03  2.5000E-03  2.5000E-03  2.5000E-03  5.0000E-03  5.0000E-03  5.0000E-03  5.0000E-03
       5.0000E-03  2.5000E-03  2.5000E-03  5.0000E-03  5.0000E-03  5.0000E-03  5.0000E-03  5.0000E-03  5.0000E-03  2.5000E-03
       2.5000E-03  2.5000E-03  1.5000E-03   0.000       0.000       0.000       0.000       0.000       0.000    
  16    0.000       0.000       0.000       0.000       0.000       0.000       0.000       0.000       0.000       0.000    
        0.000       0.000       0.000       0.000       0.000       0.000       0.000       0.000       0.000       0.000    
        0.000       0.000       0.000       0.000       0.000       0.000       0.000       0.000       0.000       0.000    
        0.000       0.000       0.000       0.000       0.000       0.000      2.0000E-03  2.0000E-03  2.0000E-03  2.0000E-03
       2.0000E-03  2.5000E-03  2.5000E-03  2.5000E-03  2.5000E-03  2.5000E-03  2.5000E-03  2.5000E-03  2.5000E-03  2.5000E-03
       2.5000E-03  2.5000E-03  2.5000E-03  2.5000E-03  2.5000E-03  2.5000E-03  5.0000E-03  5.0000E-03  5.0000E-03  5.0000E-03
       5.0000E-03  5.0000E-03  5.0000E-03  5.0000E-03  5.0000E-03  5.0000E-03  5.0000E-03  5.0000E-03  5.0000E-03  2.5000E-03
       2.5000E-03  2.5000E-03  1.5000E-03  1.5000E-03   0.000       0.000       0.000       0.000       0.000    
  17    0.000       0.000       0.000       0.000       0.000       0.000       0.000       0.000       0.000       0.000    
        0.000       0.000       0.000       0.000       0.000       0.000       0.000       0.000       0.000       0.000    
        0.000       0.000       0.000       0.000       0.000       0.000       0.000       0.000       0.000       0.000    
        0.000       0.000       0.000       0.000       0.000      2.0000E-03  2.0000E-03  2.0000E-03  2.0000E-03  2.0000E-03
       2.0000E-03  2.5000E-03  2.5000E-03  2.5000E-03  2.5000E-03  2.5000E-03  2.5000E-03  2.5000E-03  2.5000E-03  2.5000E-03
       2.5000E-03  2.5000E-03  2.5000E-03  2.5000E-03  2.5000E-03  2.5000E-03  5.0000E-03  5.0000E-03  5.0000E-03  5.0000E-03
       5.0000E-03  5.0000E-03  5.0000E-03  5.0000E-03  5.0000E-03  5.0000E-03  5.0000E-03  5.0000E-03  5.0000E-03  2.5000E-03
       2.5000E-03  2.5000E-03  1.5000E-03  1.5000E-03   0.000       0.000       0.000       0.000       0.000    
  18    0.000       0.000       0.000       0.000       0.000       0.000       0.000       0.000       0.000       0.000    
        0.000       0.000       0.000       0.000       0.000       0.000       0.000       0.000       0.000       0.000    
        0.000       0.000       0.000       0.000       0.000       0.000       0.000       0.000       0.000       0.000    
        0.000       0.000       0.000       0.000      2.0000E-03  2.0000E-03  2.0000E-03  2.0000E-03  2.0000E-03  2.0000E-03
       2.0000E-03  2.0000E-03  2.0000E-03  2.5000E-03  2.5000E-03  2.5000E-03  2.5000E-03  2.5000E-03  2.5000E-03  2.5000E-03
       2.5000E-03  2.5000E-03  2.5000E-03  2.5000E-03  2.5000E-03  2.5000E-03  5.0000E-03  5.0000E-03  5.0000E-03  5.0000E-03
       5.0000E-03  5.0000E-03  5.0000E-03  5.0000E-03  5.0000E-03  5.0000E-03  5.0000E-03  5.0000E-03  5.0000E-03  5.0000E-03
       2.5000E-03  2.5000E-03  2.5000E-03  1.5000E-03   0.000       0.000       0.000       0.000       0.000    
  19    0.000       0.000       0.000       0.000       0.000       0.000       0.000       0.000       0.000       0.000    
        0.000       0.000       0.000       0.000       0.000       0.000       0.000       0.000       0.000       0.000    
        0.000       0.000       0.000       0.000       0.000       0.000       0.000       0.000       0.000       0.000    
        0.000       0.000       0.000      2.0000E-03  2.0000E-03  2.0000E-03  2.0000E-03  2.0000E-03  2.0000E-03  2.0000E-03
       2.0000E-03  2.0000E-03  2.0000E-03  2.0000E-03  2.5000E-03  2.5000E-03  2.5000E-03  2.5000E-03  2.5000E-03  2.5000E-03
       2.5000E-03  2.5000E-03  2.5000E-03  2.5000E-03  2.5000E-03  2.5000E-03  2.5000E-03  5.0000E-03  5.0000E-03  5.0000E-03
       5.0000E-03  5.0000E-03  5.0000E-03  5.0000E-03  5.0000E-03  5.0000E-03  5.0000E-03  5.0000E-03  5.0000E-03  5.0000E-03
       2.5000E-03  2.5000E-03  2.5000E-03  1.5000E-03   0.000       0.000       0.000       0.000       0.000    
  20    0.000       0.000       0.000       0.000       0.000       0.000       0.000       0.000       0.000       0.000    
        0.000       0.000       0.000       0.000       0.000       0.000       0.000       0.000       0.000       0.000    
        0.000       0.000       0.000       0.000       0.000       0.000       0.000       0.000       0.000       0.000    
        0.000       0.000       0.000      1.0000E-03  2.0000E-03  2.0000E-03  2.0000E-03  2.0000E-03  2.0000E-03  2.0000E-03
       2.0000E-03  2.0000E-03  2.0000E-03  2.0000E-03  2.5000E-03  2.5000E-03  2.5000E-03  2.5000E-03  2.5000E-03  2.5000E-03
       2.5000E-03  2.5000E-03  2.5000E-03  2.5000E-03  2.5000E-03  2.5000E-03  2.5000E-03  5.0000E-03  5.0000E-03  5.0000E-03
       5.0000E-03  5.0000E-03  5.0000E-03  5.0000E-03  5.0000E-03  5.0000E-03  5.0000E-03  5.0000E-03  5.0000E-03  5.0000E-03
       2.5000E-03  2.5000E-03  2.5000E-03  1.5000E-03   0.000       0.000       0.000       0.000       0.000    
  21    0.000       0.000       0.000       0.000       0.000       0.000       0.000       0.000       0.000       0.000    
        0.000       0.000       0.000       0.000       0.000       0.000       0.000       0.000       0.000       0.000    
        0.000       0.000       0.000       0.000       0.000       0.000       0.000       0.000       0.000       0.000    
        0.000       0.000      1.0000E-03  1.0000E-03  2.0000E-03  1.0000E-03  2.0000E-03  2.0000E-03  2.0000E-03  2.0000E-03
       2.0000E-03  2.0000E-03  2.0000E-03  2.0000E-03  2.0000E-03  2.5000E-03  2.5000E-03  2.5000E-03  2.5000E-03  2.5000E-03
       2.5000E-03  2.5000E-03  2.5000E-03  2.5000E-03  2.5000E-03  2.5000E-03  2.5000E-03  2.5000E-03  5.0000E-03  5.0000E-03
       5.0000E-03  5.0000E-03  5.0000E-03  5.0000E-03  5.0000E-03  5.0000E-03  5.0000E-03  5.0000E-03  5.0000E-03  2.5000E-03
       2.5000E-03  2.5000E-03  2.5000E-03  1.5000E-03  1.5000E-03   0.000       0.000       0.000       0.000    
  22    0.000       0.000       0.000       0.000       0.000       0.000       0.000       0.000       0.000       0.000    
        0.000       0.000       0.000       0.000       0.000       0.000       0.000       0.000       0.000       0.000    
        0.000       0.000       0.000       0.000       0.000       0.000       0.000       0.000       0.000       0.000    
        0.000       0.000      1.0000E-03  1.0000E-03  1.0000E-03  1.0000E-03  2.0000E-03  2.0000E-03  2.0000E-03  2.0000E-03
       2.0000E-03  2.0000E-03  2.0000E-03  2.0000E-03  2.0000E-03  2.5000E-03  2.5000E-03  2.5000E-03  2.5000E-03  2.5000E-03
       2.5000E-03  2.5000E-03  2.5000E-03  2.5000E-03  2.5000E-03  2.5000E-03  2.5000E-03  2.5000E-03  2.5000E-03  2.5000E-03
       2.5000E-03  5.0000E-03  5.0000E-03  5.0000E-03  5.0000E-03  5.0000E-03  5.0000E-03  5.0000E-03  5.0000E-03  2.5000E-03
       2.5000E-03  2.5000E-03  2.5000E-03  2.5000E-03   0.000       0.000       0.000       0.000       0.000    
  23    0.000       0.000       0.000       0.000       0.000       0.000       0.000       0.000       0.000       0.000    
        0.000       0.000       0.000       0.000       0.000       0.000       0.000       0.000       0.000       0.000    
        0.000       0.000       0.000       0.000       0.000       0.000       0.000       0.000       0.000       0.000    
        0.000      1.0000E-03  1.0000E-03  1.0000E-03  1.0000E-03  2.0000E-03  2.0000E-03  2.0000E-03  2.0000E-03  2.0000E-03
       2.0000E-03  2.0000E-03  2.0000E-03  2.0000E-03  2.0000E-03  2.5000E-03  2.5000E-03  5.0000E-03  2.5000E-03  2.5000E-03
       2.5000E-03  2.5000E-03  2.5000E-03  2.5000E-03  2.5000E-03  2.5000E-03  2.5000E-03  2.5000E-03  2.5000E-03  2.5000E-03
       2.5000E-03  2.5000E-03  5.0000E-03  5.0000E-03  5.0000E-03  5.0000E-03  5.0000E-03  5.0000E-03  5.0000E-03  2.5000E-03
       2.5000E-03   0.000       0.000       0.000       0.000       0.000       0.000       0.000       0.000    
  24    0.000       0.000       0.000       0.000       0.000       0.000       0.000       0.000       0.000       0.000    
        0.000       0.000       0.000       0.000       0.000       0.000       0.000       0.000       0.000       0.000    
        0.000       0.000       0.000       0.000       0.000       0.000       0.000       0.000      1.0000E-03  1.0000E-03
       1.0000E-03  1.0000E-03  1.0000E-03  1.0000E-03  1.0000E-03  2.0000E-03  2.0000E-03  2.0000E-03  2.0000E-03  2.0000E-03
       2.0000E-03  2.0000E-03  2.0000E-03  2.0000E-03  2.0000E-03  2.5000E-03  2.5000E-03  5.0000E-03  5.0000E-03  2.5000E-03
       2.5000E-03  2.5000E-03  2.5000E-03  2.5000E-03  2.5000E-03  2.5000E-03  2.5000E-03  2.5000E-03  2.5000E-03  2.5000E-03
       2.5000E-03  2.5000E-03  2.5000E-03  5.0000E-03  5.0000E-03  5.0000E-03  5.0000E-03  5.0000E-03  5.0000E-03  2.5000E-03
       2.5000E-03   0.000       0.000       0.000       0.000       0.000       0.000       0.000       0.000    
  25    0.000       0.000       0.000       0.000       0.000       0.000       0.000       0.000       0.000       0.000    
        0.000       0.000       0.000       0.000       0.000       0.000       0.000       0.000       0.000       0.000    
        0.000       0.000       0.000       0.000       0.000       0.000       0.000      1.0000E-03  1.0000E-03  1.0000E-03
       1.0000E-03  1.0000E-03  1.0000E-03  1.0000E-03  2.0000E-03  2.0000E-03  2.0000E-03  2.0000E-03  2.0000E-03  2.0000E-03
       2.0000E-03  2.0000E-03  2.0000E-03  2.0000E-03  2.5000E-03  2.5000E-03  2.5000E-03  5.0000E-03  5.0000E-03  2.5000E-03
       2.5000E-03  2.5000E-03  2.5000E-03  2.5000E-03  2.5000E-03  2.5000E-03  2.5000E-03  2.5000E-03  2.5000E-03  2.5000E-03
       2.5000E-03  2.5000E-03  2.5000E-03  2.5000E-03  2.5000E-03  5.0000E-03  5.0000E-03  5.0000E-03  5.0000E-03  2.5000E-03
       2.5000E-03   0.000       0.000       0.000       0.000       0.000       0.000       0.000       0.000    
  26    0.000       0.000       0.000       0.000       0.000       0.000       0.000       0.000       0.000       0.000    
        0.000       0.000       0.000       0.000       0.000       0.000       0.000       0.000       0.000       0.000    
        0.000       0.000       0.000       0.000       0.000      1.0000E-03  1.0000E-03  1.0000E-03  1.0000E-03  1.0000E-03
       1.0000E-03  1.0000E-03  1.0000E-03  2.0000E-03  2.0000E-03  2.0000E-03  2.0000E-03  2.0000E-03  2.0000E-03  2.0000E-03
       2.0000E-03  2.0000E-03  2.5000E-03  2.5000E-03  2.5000E-03  2.5000E-03  2.5000E-03  2.5000E-03  5.0000E-03  5.0000E-03
       5.0000E-03  2.5000E-03  2.5000E-03  2.5000E-03  2.5000E-03  2.5000E-03  2.5000E-03  2.5000E-03  2.5000E-03  2.5000E-03
       2.5000E-03  2.5000E-03  2.5000E-03  2.5000E-03  2.5000E-03  5.0000E-03  5.0000E-03  5.0000E-03  5.0000E-03  2.5000E-03
       2.5000E-03   0.000       0.000       0.000       0.000       0.000       0.000       0.000       0.000    
  27    0.000       0.000       0.000       0.000       0.000       0.000       0.000       0.000       0.000       0.000    
        0.000       0.000       0.000       0.000       0.000       0.000       0.000       0.000       0.000       0.000    
        0.000       0.000       0.000       0.000      1.0000E-03  1.0000E-03  1.0000E-03  1.0000E-03  1.0000E-03  1.0000E-03
       1.0000E-03  1.0000E-03  2.0000E-03  2.0000E-03  2.0000E-03  2.0000E-03  2.0000E-03  2.0000E-03  2.0000E-03  2.0000E-03
       2.0000E-03  2.5000E-03  2.5000E-03  2.5000E-03  2.5000E-03  2.5000E-03  2.5000E-03  2.5000E-03  2.5000E-03  5.0000E-03
       5.0000E-03  2.5000E-03  2.5000E-03  2.5000E-03  2.5000E-03  2.5000E-03  2.5000E-03  2.5000E-03  2.5000E-03  2.5000E-03
       2.5000E-03  2.5000E-03  2.5000E-03  2.5000E-03  2.5000E-03  5.0000E-03  5.0000E-03  5.0000E-03  5.0000E-03  5.0000E-03
       2.5000E-03   0.000       0.000       0.000       0.000       0.000       0.000       0.000       0.000    
  28    0.000       0.000       0.000       0.000       0.000       0.000       0.000       0.000       0.000       0.000    
        0.000       0.000       0.000       0.000       0.000       0.000       0.000       0.000       0.000       0.000    
        0.000       0.000       0.000      1.0000E-03  1.0000E-03  1.0000E-03  1.0000E-03  1.0000E-03  1.0000E-03  1.0000E-03
       1.0000E-03  2.0000E-03  2.0000E-03  2.0000E-03  2.0000E-03  2.0000E-03  2.0000E-03  2.0000E-03  2.5000E-03  2.5000E-03
       2.5000E-03  2.5000E-03  2.5000E-03  2.5000E-03  2.5000E-03  2.5000E-03  2.5000E-03  2.5000E-03  2.5000E-03  2.5000E-03
       5.0000E-03  5.0000E-03  2.5000E-03  2.5000E-03  2.5000E-03  2.5000E-03  2.5000E-03  2.5000E-03  2.5000E-03  2.5000E-03
       2.5000E-03  2.5000E-03  2.5000E-03  2.5000E-03  2.5000E-03  2.5000E-03  5.0000E-03  5.0000E-03  1.5000E-02  5.0000E-03
       2.5000E-03  2.5000E-03   0.000       0.000       0.000       0.000       0.000       0.000       0.000    
  29    0.000       0.000       0.000       0.000       0.000       0.000       0.000       0.000       0.000       0.000    
        0.000       0.000       0.000       0.000       0.000       0.000       0.000       0.000       0.000       0.000    
        0.000      1.0000E-03  1.0000E-03  1.0000E-03  1.0000E-03  1.0000E-03  1.0000E-03  1.0000E-03  1.0000E-03  2.0000E-03
       2.0000E-03  2.0000E-03  2.0000E-03  2.0000E-03  2.0000E-03  2.0000E-03  2.0000E-03  2.5000E-03  2.5000E-03  2.5000E-03
       2.5000E-03  2.5000E-03  2.5000E-03  2.5000E-03  2.5000E-03  2.5000E-03  2.5000E-03  2.5000E-03  2.5000E-03  2.5000E-03
       5.0000E-03  5.0000E-03  2.5000E-03  2.5000E-03  2.5000E-03  2.5000E-03  2.5000E-03  2.5000E-03  2.5000E-03  2.5000E-03
       2.5000E-03  2.5000E-03  2.5000E-03  2.5000E-03  2.5000E-03  2.5000E-03  5.0000E-03  5.0000E-03  1.5000E-02  5.0000E-03
       2.5000E-03  2.5000E-03   0.000       0.000       0.000       0.000       0.000       0.000       0.000    
  30    0.000       0.000       0.000       0.000       0.000       0.000       0.000       0.000       0.000       0.000    
        0.000       0.000       0.000       0.000       0.000       0.000       0.000       0.000       0.000      1.0000E-03
       1.0000E-03  1.0000E-03  1.0000E-03  1.0000E-03  1.0000E-03  1.0000E-03  1.0000E-03  2.0000E-03  2.0000E-03  2.0000E-03
       2.0000E-03  2.0000E-03  2.0000E-03  2.0000E-03  2.0000E-03  2.0000E-03  2.0000E-03  2.5000E-03  2.5000E-03  2.5000E-03
       2.5000E-03  2.5000E-03  2.5000E-03  2.5000E-03  2.5000E-03  2.5000E-03  2.5000E-03  2.5000E-03  2.5000E-03  2.5000E-03
       5.0000E-03  5.0000E-03  2.5000E-03  2.5000E-03  2.5000E-03  2.5000E-03  2.5000E-03  2.5000E-03  2.5000E-03  2.5000E-03
       2.5000E-03  2.5000E-03  2.5000E-03  2.5000E-03  2.5000E-03  2.5000E-03  5.0000E-03  5.0000E-03  1.5000E-02  5.0000E-03
       2.5000E-03  2.5000E-03   0.000       0.000       0.000       0.000       0.000       0.000       0.000    
  31    0.000       0.000       0.000       0.000       0.000       0.000       0.000       0.000       0.000       0.000    
        0.000       0.000       0.000       0.000       0.000       0.000       0.000       0.000      1.0000E-03  1.0000E-03
       1.0000E-03  1.0000E-03  1.0000E-03  2.0000E-03  2.0000E-03  2.0000E-03  2.0000E-03  2.0000E-03  2.0000E-03  2.0000E-03
       2.0000E-03  2.0000E-03  2.0000E-03  2.0000E-03  2.0000E-03  2.0000E-03  2.5000E-03  2.5000E-03  2.5000E-03  2.5000E-03
       2.5000E-03  2.5000E-03  2.5000E-03  5.0000E-03  2.5000E-03  2.5000E-03  2.5000E-03  2.5000E-03  2.5000E-03  2.5000E-03
       5.0000E-03  5.0000E-03  2.5000E-03  2.5000E-03  2.5000E-03  2.5000E-03  2.5000E-03  2.5000E-03  2.5000E-03  2.5000E-03
       2.5000E-03  2.5000E-03  2.5000E-03  2.5000E-03  2.5000E-03  2.5000E-03  5.0000E-03  5.0000E-03  1.5000E-02  1.5000E-02
       2.5000E-03  2.5000E-03   0.000       0.000       0.000       0.000       0.000       0.000       0.000    
  32    0.000       0.000       0.000       0.000       0.000       0.000       0.000       0.000       0.000       0.000    
        0.000       0.000       0.000       0.000       0.000       0.000      1.0000E-03  1.0000E-03  1.0000E-03  1.0000E-03
       1.0000E-03  1.0000E-03  2.0000E-03  2.0000E-03  2.0000E-03  2.0000E-03  2.0000E-03  2.0000E-03  2.0000E-03  2.0000E-03
       2.0000E-03  2.0000E-03  2.0000E-03  2.0000E-03  2.0000E-03  2.0000E-03  2.5000E-03  2.5000E-03  1.5000E-02  1.5000E-02
       1.5000E-02  1.5000E-02  1.5000E-02  1.5000E-02  2.5000E-03  2.5000E-03  2.5000E-03  2.5000E-03  2.5000E-03  2.5000E-03
       5.0000E-03  5.0000E-03  5.0000E-03  2.5000E-03  2.5000E-03  2.5000E-03  2.5000E-03  2.5000E-03  2.5000E-03  2.5000E-03
       2.5000E-03  2.5000E-03  2.5000E-03  2.5000E-03  2.5000E-03  2.5000E-03  2.5000E-03  5.0000E-03  5.0000E-03  1.5000E-02
       5.0000E-03  2.5000E-03   0.000       0.000       0.000       0.000       0.000       0.000       0.000    
  33    0.000       0.000       0.000       0.000       0.000       0.000       0.000       0.000       0.000       0.000    
        0.000       0.000       0.000       0.000       0.000      1.0000E-03  1.0000E-03  1.0000E-03  1.0000E-03  1.0000E-03
       1.0000E-03  1.0000E-03  2.0000E-03  2.0000E-03  2.0000E-03  2.0000E-03  2.0000E-03  2.0000E-03  2.0000E-03  2.0000E-03
       2.0000E-03  2.0000E-03  2.0000E-03  2.0000E-03  2.5000E-03  2.5000E-03  2.5000E-03  1.5000E-02  1.5000E-02  1.5000E-02
       1.5000E-02  1.5000E-02  1.5000E-02  1.5000E-02  1.5000E-02  2.5000E-03  2.5000E-03  2.5000E-03  2.5000E-03  2.5000E-03
       5.0000E-03  5.0000E-03  5.0000E-03  5.0000E-03  5.0000E-03  5.0000E-03  2.5000E-03  2.5000E-03  2.5000E-03  2.5000E-03
       2.5000E-03  2.5000E-03  2.5000E-03  2.5000E-03  2.5000E-03  2.5000E-03  2.5000E-03  5.0000E-03  5.0000E-03  1.5000E-02
       5.0000E-03  2.5000E-03  2.5000E-03   0.000       0.000       0.000       0.000       0.000       0.000    
  34    0.000       0.000       0.000       0.000       0.000       0.000       0.000       0.000       0.000       0.000    
        0.000       0.000       0.000       0.000      1.0000E-03  1.0000E-03  1.0000E-03  1.0000E-03  1.0000E-03  1.0000E-03
       1.0000E-03  1.0000E-03  2.0000E-03  2.0000E-03  2.0000E-03  2.0000E-03  2.0000E-03  5.0000E-03  2.0000E-03  2.0000E-03
       2.0000E-03  2.0000E-03  2.0000E-03  2.0000E-03  2.5000E-03  2.5000E-03  1.5000E-02  1.5000E-02  1.5000E-02  1.5000E-02
       1.5000E-02  5.0000E-03  5.0000E-03  1.5000E-02  1.5000E-02  1.5000E-02  1.5000E-02  1.5000E-02  1.5000E-02  5.0000E-03
       5.0000E-03  5.0000E-03  1.5000E-02  1.5000E-02  1.5000E-02  5.0000E-03  2.5000E-03  2.5000E-03  2.5000E-03  2.5000E-03
       2.5000E-03  2.5000E-03  2.5000E-03  2.5000E-03  2.5000E-03  2.5000E-03  2.5000E-03  5.0000E-03  5.0000E-03  5.0000E-03
       2.5000E-03  2.0000E-03  2.0000E-03   0.000       0.000       0.000       0.000       0.000       0.000    
  35    0.000       0.000       0.000       0.000       0.000       0.000       0.000       0.000       0.000       0.000    
        0.000       0.000       0.000      1.0000E-03  1.0000E-03  1.0000E-03  1.0000E-03  1.0000E-03  2.0000E-03  2.0000E-03
       2.0000E-03  2.0000E-03  2.0000E-03  2.0000E-03  5.0000E-03  5.0000E-03  5.0000E-03  5.0000E-03  5.0000E-03  5.0000E-03
       2.0000E-03  2.0000E-03  5.0000E-03  5.0000E-03  1.5000E-02  1.5000E-02  1.5000E-02  1.5000E-02  5.0000E-03  5.0000E-03
       5.0000E-03  5.0000E-03  5.0000E-03  5.0000E-03  1.5000E-02  1.5000E-02  1.5000E-02  1.5000E-02  1.5000E-02  1.5000E-02
       1.5000E-02  1.5000E-02  1.5000E-02  1.5000E-02  1.5000E-02  1.5000E-02  2.5000E-03  2.5000E-03  2.5000E-03  2.5000E-03
       2.5000E-03  2.5000E-03  2.5000E-03  2.5000E-03  2.5000E-03  2.5000E-03  2.5000E-03  5.0000E-03  5.0000E-03  2.5000E-03
       2.5000E-03  2.0000E-03  1.0000E-03  1.0000E-03   0.000       0.000       0.000       0.000       0.000    
  36    0.000       0.000       0.000       0.000       0.000       0.000       0.000       0.000       0.000       0.000    
        0.000       0.000       0.000      1.0000E-03  1.0000E-03  1.0000E-03  1.0000E-03  2.0000E-03  2.0000E-03  2.0000E-03
       2.0000E-03  2.0000E-03  2.0000E-03  2.0000E-03  5.0000E-03  5.0000E-03  5.0000E-03  5.0000E-03  1.5000E-02  1.5000E-02
       1.5000E-02  1.5000E-02  1.5000E-02  1.5000E-02  1.5000E-02  1.5000E-02  1.5000E-02  1.5000E-02  5.0000E-03  5.0000E-03
       5.0000E-03  5.0000E-03  5.0000E-03  5.0000E-03  1.5000E-02  1.5000E-02  1.5000E-02  1.5000E-02  1.5000E-02  1.5000E-02
       1.5000E-02  1.5000E-02  1.5000E-02  1.5000E-02  1.5000E-02  1.5000E-02  1.5000E-02  5.0000E-03  5.0000E-03  2.5000E-03
       2.5000E-03  2.5000E-03  5.0000E-03  5.0000E-03  2.5000E-03  2.5000E-03  2.5000E-03  5.0000E-03  5.0000E-03  2.5000E-03
       2.5000E-03  2.5000E-03  1.0000E-03  1.0000E-03  1.0000E-03   0.000       0.000       0.000       0.000    
  37    0.000       0.000       0.000       0.000       0.000       0.000       0.000       0.000       0.000       0.000    
        0.000       0.000      1.0000E-03  1.0000E-03  1.0000E-03  1.0000E-03  2.0000E-03  2.0000E-03  2.0000E-03  2.0000E-03
       2.0000E-03  2.0000E-03  2.0000E-03  5.0000E-03  1.5000E-02  1.5000E-02  1.5000E-02  1.5000E-02  1.5000E-02  1.5000E-02
       1.5000E-02  1.5000E-02  1.5000E-02  1.5000E-02  1.5000E-02  1.5000E-02  1.5000E-02  1.5000E-02  2.5000E-03  2.5000E-03
       2.5000E-03  2.5000E-03  5.0000E-03  1.5000E-02  1.5000E-02  1.5000E-02  1.5000E-02  1.5000E-02  1.5000E-02  1.5000E-02
       1.5000E-02  1.5000E-02  1.5000E-02  1.5000E-02  1.5000E-02  1.5000E-02  1.5000E-02  1.5000E-02  1.5000E-02  1.5000E-02
       1.5000E-02  1.5000E-02  5.0000E-03  5.0000E-03  5.0000E-03  5.0000E-03  5.0000E-03  5.0000E-03  5.0000E-03  5.0000E-03
       2.5000E-03  2.5000E-03  2.0000E-03  1.0000E-03  1.0000E-03   0.000       0.000       0.000       0.000    
  38    0.000       0.000       0.000       0.000       0.000       0.000       0.000       0.000       0.000       0.000    
       2.0000E-03  2.0000E-03  1.0000E-03  2.0000E-03  2.0000E-03  2.0000E-03  2.0000E-03  2.0000E-03  5.0000E-03  5.0000E-03
       5.0000E-03  5.0000E-03  5.0000E-03  5.0000E-03  5.0000E-03  1.5000E-02  1.5000E-02  1.5000E-02  5.0000E-03  5.0000E-03
       1.5000E-02  1.5000E-02  1.5000E-02  1.5000E-02  1.5000E-02  1.5000E-02  1.5000E-02  1.5000E-02  2.5000E-03  2.5000E-03
       2.5000E-03  2.5000E-03  5.0000E-03  1.5000E-02  1.5000E-02  1.5000E-02  2.5000E-03  5.0000E-03  5.0000E-03  5.0000E-03
       5.0000E-03  5.0000E-03  1.5000E-02  1.5000E-02  1.5000E-02  1.5000E-02  1.5000E-02  1.5000E-02  1.5000E-02  1.5000E-02
       1.5000E-02  1.5000E-02  1.5000E-02  1.5000E-02  1.5000E-02  1.5000E-02  1.5000E-02  1.5000E-02  1.5000E-02  5.0000E-03
       5.0000E-03  2.5000E-03  2.0000E-03  1.0000E-03  1.0000E-03  2.0000E-03   0.000       0.000       0.000    
  39    0.000       0.000       0.000       0.000       0.000       0.000       0.000      1.0000E-03  1.0000E-03  2.0000E-03
       2.0000E-03  2.0000E-03  2.0000E-03  2.0000E-03  5.0000E-03  5.0000E-03  5.0000E-03  5.0000E-03  5.0000E-03  5.0000E-03
       5.0000E-03  5.0000E-03  5.0000E-03  2.5000E-03  2.5000E-03  2.5000E-03  2.5000E-03  2.5000E-03  5.0000E-03  1.5000E-02
       1.5000E-02  1.5000E-02  1.5000E-02  1.5000E-02  1.5000E-02  1.5000E-02  1.5000E-02  1.5000E-02  2.5000E-03  2.5000E-03
       2.5000E-03  2.5000E-03  2.5000E-03  1.5000E-02  1.5000E-02  2.5000E-03  2.5000E-03  2.5000E-03  5.0000E-03  5.0000E-03
       5.0000E-03  5.0000E-03  5.0000E-03  5.0000E-03  5.0000E-03  5.0000E-03  5.0000E-03  5.0000E-03  5.0000E-03  1.5000E-02
       1.5000E-02  1.5000E-02  1.5000E-02  1.5000E-02  1.5000E-02  1.5000E-02  1.5000E-02  1.5000E-02  1.5000E-02  1.5000E-02
       1.5000E-02  1.5000E-02  5.0000E-03  2.0000E-03  2.0000E-03  4.5000E-02   0.000       0.000       0.000    
  40    0.000       0.000       0.000       0.000       0.000       0.000      1.0000E-03  1.0000E-03  1.0000E-03  2.0000E-03
       2.0000E-03  2.0000E-03  5.0000E-03  5.0000E-03  5.0000E-03  5.0000E-03  5.0000E-03  5.0000E-03  2.0000E-03  2.0000E-03
       2.0000E-03  2.0000E-03  2.5000E-03  2.5000E-03  2.5000E-03  2.5000E-03  2.5000E-03  2.5000E-03  1.5000E-02  1.5000E-02
       1.5000E-02  1.5000E-02  1.5000E-02  1.5000E-02  1.5000E-02  1.5000E-02  1.5000E-02  1.5000E-02  2.5000E-03  2.5000E-03
       2.5000E-03  2.5000E-03  2.5000E-03  1.5000E-02  1.5000E-02  2.5000E-03  2.5000E-03  2.5000E-03  2.5000E-03  5.0000E-03
       5.0000E-03  5.0000E-03  5.0000E-03  5.0000E-03  5.0000E-03  5.0000E-03  2.5000E-03  2.5000E-03  5.0000E-03  1.5000E-02
       1.5000E-02  5.0000E-03  5.0000E-03  5.0000E-03  5.0000E-03  1.5000E-02  1.5000E-02  1.5000E-02  1.5000E-02  1.5000E-02
       1.5000E-02  1.5000E-02  1.5000E-02  1.5000E-02  1.5000E-02  4.5000E-02   0.000       0.000       0.000    
  41    0.000       0.000       0.000       0.000       0.000      1.0000E-03  1.0000E-03  1.0000E-03  2.0000E-03  2.0000E-03
       2.0000E-03  2.0000E-03  5.0000E-03  5.0000E-03  2.0000E-03  2.0000E-03  2.0000E-03  2.0000E-03  2.0000E-03  2.0000E-03
       2.0000E-03  2.5000E-03  2.5000E-03  2.5000E-03  2.5000E-03  2.5000E-03  2.5000E-03  2.5000E-03  1.5000E-02  1.5000E-02
       5.0000E-03  5.0000E-03  5.0000E-03  1.5000E-02  1.5000E-02  1.5000E-02  1.5000E-02  1.5000E-02  2.5000E-03  2.5000E-03
       2.5000E-03  2.5000E-03  2.5000E-03  1.5000E-02  1.5000E-02  1.5000E-02  2.5000E-03  2.5000E-03  2.5000E-03  5.0000E-03
       5.0000E-03  5.0000E-03  2.0000E-03  2.0000E-03  2.0000E-03  2.0000E-03  2.5000E-03  2.5000E-03  2.5000E-03  1.5000E-02
       1.5000E-02  5.0000E-03  2.5000E-03  5.0000E-03  5.0000E-03  5.0000E-03  2.5000E-03  2.5000E-03  1.5000E-02  1.5000E-02
       1.5000E-02  1.5000E-02  1.5000E-02  1.5000E-02  1.5000E-02   0.000       0.000       0.000       0.000    
  42    0.000       0.000       0.000       0.000       0.000      1.0000E-03  1.0000E-03  1.0000E-03  2.0000E-03  2.0000E-03
       2.0000E-03  2.0000E-03  2.0000E-03  2.0000E-03  2.0000E-03  2.0000E-03  2.0000E-03  2.0000E-03  2.0000E-03  2.5000E-03
       2.5000E-03  2.5000E-03  2.5000E-03  1.5000E-02  1.5000E-02  1.5000E-02  1.5000E-02  1.5000E-02  1.5000E-02  5.0000E-03
       5.0000E-03  5.0000E-03  5.0000E-03  5.0000E-03  1.5000E-02  1.5000E-02  1.5000E-02  1.5000E-02  2.5000E-03  2.5000E-03
       2.5000E-03  2.5000E-03  2.5000E-03  5.0000E-03  1.5000E-02  1.5000E-02  2.5000E-03  2.5000E-03  2.5000E-03  2.5000E-03
       2.0000E-03  2.0000E-03  2.0000E-03  2.0000E-03  2.0000E-03  2.0000E-03  2.0000E-03  2.5000E-03  2.5000E-03  1.5000E-02
       1.5000E-02  5.0000E-03  2.5000E-03  2.5000E-03  2.5000E-03  2.5000E-03  2.5000E-03  2.5000E-03  2.5000E-03  5.0000E-03
       1.5000E-02  1.5000E-02  1.5000E-02  1.5000E-02  1.5000E-02   0.000       0.000       0.000       0.000    
  43    0.000       0.000       0.000       0.000       0.000      1.0000E-03  1.0000E-03  1.0000E-03  2.0000E-03  2.0000E-03
       2.0000E-03  2.0000E-03  2.0000E-03  2.0000E-03  2.0000E-03  2.0000E-03  2.0000E-03  2.0000E-03  2.0000E-03  2.5000E-03
       2.5000E-03  2.5000E-03  1.5000E-02  1.5000E-02  1.5000E-02  5.0000E-03  5.0000E-03  5.0000E-03  5.0000E-03  5.0000E-03
       5.0000E-03  5.0000E-03  5.0000E-03  5.0000E-03  1.5000E-02  1.5000E-02  1.5000E-02  2.5000E-03  2.5000E-03  2.5000E-03
       2.5000E-03  2.5000E-03  2.5000E-03  5.0000E-03  1.5000E-02  1.5000E-02  2.5000E-03  2.5000E-03  2.5000E-03  2.5000E-03
       2.0000E-03  2.0000E-03  2.0000E-03  2.0000E-03  2.0000E-03  2.0000E-03  2.0000E-03  2.5000E-03  2.5000E-03  1.5000E-02
       1.5000E-02  2.5000E-03  2.5000E-03  2.5000E-03  2.5000E-03  2.5000E-03  2.5000E-03  2.5000E-03  2.5000E-03  5.0000E-03
       1.5000E-02  1.5000E-02  1.5000E-02  1.5000E-02  5.0000E-03   0.000       0.000       0.000       0.000    
  44    0.000       0.000       0.000       0.000       0.000      1.0000E-03  1.0000E-03  1.0000E-03  1.0000E-03  2.0000E-03
       2.0000E-03  2.0000E-03  2.0000E-03  2.0000E-03  2.0000E-03  2.5000E-03  2.5000E-03  2.5000E-03  2.5000E-03  5.0000E-03
       5.0000E-03  1.5000E-02  1.5000E-02  5.0000E-03  5.0000E-03  5.0000E-03  5.0000E-03  5.0000E-03  5.0000E-03  5.0000E-03
       5.0000E-03  5.0000E-03  5.0000E-03  5.0000E-03  1.5000E-02  1.5000E-02  1.5000E-02  2.5000E-03  2.5000E-03  2.5000E-03
       2.5000E-03  2.5000E-03  2.0000E-03  2.0000E-03  1.5000E-02  1.5000E-02  2.5000E-03  2.5000E-03  2.5000E-03  2.5000E-03
       2.5000E-03  2.0000E-03  1.0000E-03  1.0000E-03  1.0000E-03  2.0000E-03  2.0000E-03  2.5000E-03  2.5000E-03  5.0000E-03
       1.5000E-02  2.5000E-03  2.5000E-03  2.5000E-03  2.5000E-03  2.5000E-03  2.5000E-03  2.5000E-03  2.5000E-03  5.0000E-03
       5.0000E-03  1.5000E-02  1.5000E-02  5.0000E-03  5.0000E-03   0.000       0.000       0.000       0.000    
  45    0.000       0.000       0.000      1.0000E-03  1.0000E-03  1.0000E-03  1.0000E-03  1.0000E-03  2.0000E-03  2.0000E-03
       2.0000E-03  2.0000E-03  2.0000E-03  2.0000E-03  5.0000E-03  5.0000E-03  5.0000E-03  5.0000E-03  5.0000E-03  1.5000E-02
       1.5000E-02  1.5000E-02  5.0000E-03  5.0000E-03  5.0000E-03  5.0000E-03  5.0000E-03  5.0000E-03  5.0000E-03  5.0000E-03
       5.0000E-03  5.0000E-03  5.0000E-03  5.0000E-03  1.5000E-02  1.5000E-02  1.5000E-02  5.0000E-03  2.0000E-03  2.0000E-03
       2.0000E-03  2.0000E-03  2.0000E-03  2.0000E-03  1.5000E-02  1.5000E-02  2.5000E-03  2.5000E-03  1.0000E-03  1.0000E-03
       1.0000E-03  1.0000E-03  1.0000E-03  1.0000E-03  1.0000E-03  2.0000E-03  2.0000E-03  2.5000E-03  2.5000E-03  5.0000E-03
       1.5000E-02  2.5000E-03  2.5000E-03  2.5000E-03  2.5000E-03  2.5000E-03  2.5000E-03  2.5000E-03  2.5000E-03  5.0000E-03
       5.0000E-03  1.5000E-02  1.5000E-02  2.5000E-03  2.0000E-03   0.000       0.000       0.000       0.000    
  46    0.000       0.000       0.000      1.0000E-03  1.0000E-03  1.0000E-03  1.0000E-03  1.0000E-03  2.0000E-03  2.0000E-03
       2.0000E-03  5.0000E-03  5.0000E-03  5.0000E-03  5.0000E-03  5.0000E-03  1.5000E-02  1.5000E-02  1.5000E-02  1.5000E-02
       1.5000E-02  5.0000E-03  5.0000E-03  5.0000E-03  5.0000E-03  5.0000E-03  5.0000E-03  5.0000E-03  5.0000E-03  5.0000E-03
       5.0000E-03  5.0000E-03  5.0000E-03  5.0000E-03  1.5000E-02  1.5000E-02  1.5000E-02  2.5000E-03  2.0000E-03  2.0000E-03
       2.0000E-03  2.0000E-03  2.0000E-03  2.0000E-03  1.5000E-02  1.5000E-02  2.5000E-03  2.5000E-03  1.0000E-03  1.0000E-03
       1.0000E-03  1.0000E-03  1.0000E-03  1.0000E-03  1.0000E-03  2.0000E-03  2.0000E-03  2.5000E-03  2.5000E-03  5.0000E-03
       5.0000E-03  2.5000E-03  2.5000E-03  2.5000E-03  2.5000E-03  2.5000E-03  2.5000E-03  2.5000E-03  2.5000E-03  5.0000E-03
       5.0000E-03  1.5000E-02  5.0000E-03  2.5000E-03  2.5000E-03   0.000       0.000       0.000       0.000    
  47    0.000       0.000       0.000      1.0000E-03  1.0000E-03  1.0000E-03  1.0000E-03  2.0000E-03  2.0000E-03  2.0000E-03
       2.0000E-03  5.0000E-03  5.0000E-03  5.0000E-03  1.5000E-02  1.5000E-02  1.5000E-02  5.0000E-03  5.0000E-03  5.0000E-03
       5.0000E-03  5.0000E-03  5.0000E-03  5.0000E-03  5.0000E-03  5.0000E-03  5.0000E-03  5.0000E-03  5.0000E-03  2.5000E-03
       5.0000E-03  5.0000E-03  5.0000E-03  5.0000E-03  1.5000E-02  1.5000E-02  1.5000E-02  2.5000E-03  2.0000E-03  2.0000E-03
       2.0000E-03  2.0000E-03  2.0000E-03  2.0000E-03  1.5000E-02  1.5000E-02  2.5000E-03  2.5000E-03  1.0000E-03  1.0000E-03
       1.0000E-03  1.0000E-03  1.0000E-03  1.0000E-03  1.0000E-03  2.0000E-03  2.0000E-03  2.0000E-03  2.5000E-03  2.5000E-03
       5.0000E-03  2.5000E-03  2.5000E-03  2.5000E-03  2.5000E-03  2.5000E-03  2.5000E-03  2.5000E-03  2.5000E-03  5.0000E-03
       5.0000E-03  1.5000E-02  5.0000E-03  2.5000E-03  2.5000E-03   0.000       0.000       0.000       0.000    
  48    0.000       0.000       0.000      1.0000E-03  1.0000E-03  1.0000E-03  1.0000E-03  2.0000E-03  2.0000E-03  2.0000E-03
       2.0000E-03  5.0000E-03  1.5000E-02  1.5000E-02  1.5000E-02  5.0000E-03  5.0000E-03  5.0000E-03  5.0000E-03  5.0000E-03
       5.0000E-03  5.0000E-03  5.0000E-03  5.0000E-03  2.5000E-03  2.5000E-03  2.5000E-03  2.5000E-03  2.5000E-03  2.5000E-03
       5.0000E-03  5.0000E-03  5.0000E-03  5.0000E-03  1.5000E-02  1.5000E-02  1.5000E-02  1.5000E-02  2.0000E-03  2.0000E-03
       2.0000E-03  2.0000E-03  2.0000E-03  2.0000E-03  1.5000E-02  1.5000E-02  2.5000E-03  2.5000E-03  2.5000E-03  1.0000E-03
       1.0000E-03  1.0000E-03  1.0000E-03  1.0000E-03  1.0000E-03  1.0000E-03  2.0000E-03  2.0000E-03  2.5000E-03  2.5000E-03
       5.0000E-03  5.0000E-03  2.5000E-03  2.5000E-03  2.5000E-03  2.5000E-03  2.5000E-03  2.5000E-03  2.5000E-03  5.0000E-03
       1.5000E-02  1.5000E-02  5.0000E-03  2.5000E-03  2.5000E-03  2.5000E-03   0.000       0.000       0.000    
  49    0.000       0.000       0.000      1.0000E-03  1.0000E-03  1.0000E-03  1.0000E-03  2.0000E-03  2.0000E-03  2.0000E-03
       5.0000E-03  1.5000E-02  1.5000E-02  5.0000E-03  5.0000E-03  5.0000E-03  5.0000E-03  5.0000E-03  5.0000E-03  2.5000E-03
       2.5000E-03  2.5000E-03  2.5000E-03  2.5000E-03  2.5000E-03  2.5000E-03  2.5000E-03  2.5000E-03  2.5000E-03  2.5000E-03
       5.0000E-03  5.0000E-03  5.0000E-03  5.0000E-03  1.5000E-02  1.5000E-02  1.5000E-02  1.5000E-02  1.5000E-02  2.0000E-03
       2.0000E-03  2.0000E-03  2.0000E-03  2.0000E-03  2.0000E-03  1.5000E-02  1.5000E-02  5.0000E-03  2.5000E-03  1.0000E-03
       1.0000E-03  1.0000E-03  1.0000E-03  1.0000E-03  1.0000E-03  1.0000E-03  2.0000E-03  2.0000E-03  2.5000E-03  2.5000E-03
       5.0000E-03  5.0000E-03  2.5000E-03  2.5000E-03  2.5000E-03  2.5000E-03  2.5000E-03  2.5000E-03  2.5000E-03  5.0000E-03
       1.5000E-02  1.5000E-02  5.0000E-03  2.5000E-03  2.5000E-03  2.5000E-03   0.000       0.000       0.000    
  50    0.000       0.000       0.000      1.0000E-03  1.0000E-03  1.0000E-03  2.0000E-03  2.0000E-03  2.0000E-03  2.0000E-03
       1.5000E-02  1.5000E-02  1.5000E-02  1.5000E-02  5.0000E-03  2.5000E-03  2.5000E-03  2.5000E-03  2.5000E-03  2.5000E-03
       2.5000E-03  2.5000E-03  2.5000E-03  2.5000E-03  2.5000E-03  2.5000E-03  2.5000E-03  2.5000E-03  2.5000E-03  2.5000E-03
       2.5000E-03  5.0000E-03  5.0000E-03  5.0000E-03  5.0000E-03  1.5000E-02  1.5000E-02  1.5000E-02  1.5000E-02  1.5000E-02
       2.0000E-03  2.0000E-03  2.0000E-03  2.0000E-03  2.0000E-03  2.0000E-03  1.5000E-02  1.5000E-02  5.0000E-03  1.0000E-03
       1.0000E-03  1.0000E-03  1.0000E-03  1.0000E-03  1.0000E-03  1.0000E-03  2.0000E-03  2.0000E-03  2.5000E-03  2.5000E-03
       5.0000E-03  5.0000E-03  2.5000E-03  2.5000E-03  2.5000E-03  2.5000E-03  2.5000E-03  2.5000E-03  2.5000E-03  5.0000E-03
       1.5000E-02  1.5000E-02  5.0000E-03  5.0000E-03  2.5000E-03  2.5000E-03   0.000       0.000       0.000    
  51    0.000       0.000       0.000      1.0000E-03  1.0000E-03  2.0000E-03  2.0000E-03  2.0000E-03  2.0000E-03  1.5000E-02
       1.5000E-02  1.5000E-02  1.5000E-02  5.0000E-03  5.0000E-03  2.0000E-03  2.0000E-03  2.5000E-03  2.5000E-03  2.5000E-03
       2.5000E-03  2.5000E-03  2.5000E-03  2.5000E-03  2.5000E-03  2.5000E-03  2.5000E-03  2.5000E-03  2.5000E-03  2.5000E-03
       2.5000E-03  5.0000E-03  5.0000E-03  5.0000E-03  5.0000E-03  1.5000E-02  1.5000E-02  1.5000E-02  1.5000E-02  1.5000E-02
       2.0000E-03  2.0000E-03  2.0000E-03  2.0000E-03  2.0000E-03  2.0000E-03  1.5000E-02  1.5000E-02  1.5000E-02  1.0000E-03
       1.0000E-03  1.0000E-03  1.0000E-03  1.0000E-03  1.0000E-03  1.0000E-03  2.0000E-03  2.0000E-03  2.5000E-03  2.5000E-03
       5.0000E-03  5.0000E-03  5.0000E-03  2.5000E-03  2.5000E-03  2.5000E-03  2.5000E-03  2.5000E-03  2.5000E-03  5.0000E-03
       1.5000E-02  1.5000E-02  5.0000E-03  5.0000E-03  2.5000E-03  2.5000E-03   0.000       0.000       0.000    
  52    0.000       0.000      1.0000E-03  1.0000E-03  1.0000E-03  2.0000E-03  2.0000E-03  2.0000E-03  2.0000E-03  1.5000E-02
       1.5000E-02  1.5000E-02  5.0000E-03  2.0000E-03  2.0000E-03  2.0000E-03  2.0000E-03  2.0000E-03  2.0000E-03  2.5000E-03
       2.5000E-03  2.5000E-03  2.5000E-03  2.5000E-03  2.5000E-03  2.5000E-03  2.5000E-03  2.5000E-03  2.5000E-03  2.5000E-03
       2.5000E-03  5.0000E-03  5.0000E-03  5.0000E-03  5.0000E-03  1.5000E-02  1.5000E-02  1.5000E-02  1.5000E-02  1.5000E-02
       2.0000E-03  2.0000E-03  2.0000E-03  2.0000E-03  2.0000E-03  2.0000E-03  2.0000E-03  1.5000E-02  1.5000E-02  1.0000E-03
       1.0000E-03  1.0000E-03  1.0000E-03  1.0000E-03  1.0000E-03  1.0000E-03  2.0000E-03  2.0000E-03  2.0000E-03  2.5000E-03
       5.0000E-03  5.0000E-03  5.0000E-03  2.5000E-03  2.5000E-03  2.5000E-03  2.5000E-03  2.5000E-03  2.5000E-03  5.0000E-03
       1.5000E-02  1.5000E-02  1.5000E-02  5.0000E-03  2.5000E-03  2.5000E-03   0.000       0.000       0.000    
  53    0.000       0.000      1.0000E-03  1.0000E-03  1.0000E-03  2.0000E-03  2.0000E-03  2.0000E-03  1.5000E-02  1.5000E-02
       1.5000E-02  5.0000E-03  2.0000E-03  2.0000E-03  2.0000E-03  2.0000E-03  2.0000E-03  2.0000E-03  2.0000E-03  2.0000E-03
       2.0000E-03  2.5000E-03  2.5000E-03  2.5000E-03  2.5000E-03  2.5000E-03  2.5000E-03  2.5000E-03  2.5000E-03  2.5000E-03
       2.5000E-03  5.0000E-03  5.0000E-03  5.0000E-03  5.0000E-03  1.5000E-02  1.5000E-02  1.5000E-02  1.5000E-02  2.0000E-03
       2.0000E-03  2.0000E-03  2.0000E-03  2.0000E-03  2.0000E-03  2.0000E-03  2.0000E-03  1.5000E-02  5.0000E-03  1.5000E-02
       1.0000E-03  1.0000E-03  1.0000E-03  1.0000E-03  1.0000E-03  1.0000E-03  1.0000E-03  2.0000E-03  2.0000E-03  2.5000E-03
       5.0000E-03  5.0000E-03  5.0000E-03  2.5000E-03  2.5000E-03  2.5000E-03  2.5000E-03  2.5000E-03  2.5000E-03  5.0000E-03
       5.0000E-03  1.5000E-02  1.5000E-02  5.0000E-03  2.5000E-03  2.5000E-03  2.5000E-03   0.000       0.000    
  54    0.000       0.000      1.0000E-03  1.0000E-03  1.0000E-03  2.0000E-03  2.0000E-03  2.0000E-03  1.5000E-02  1.5000E-02
       1.5000E-02  2.0000E-03  2.0000E-03  2.0000E-03  2.0000E-03  2.0000E-03  2.0000E-03  2.0000E-03  2.0000E-03  2.0000E-03
       2.0000E-03  2.5000E-03  2.5000E-03  2.5000E-03  2.5000E-03  2.5000E-03  2.5000E-03  2.5000E-03  2.5000E-03  2.5000E-03
       2.5000E-03  5.0000E-03  5.0000E-03  5.0000E-03  5.0000E-03  1.5000E-02  1.5000E-02  1.5000E-02  1.5000E-02  2.5000E-03
       2.0000E-03  2.0000E-03  2.0000E-03  1.0000E-03  1.0000E-03  1.0000E-03  2.0000E-03  5.0000E-03  5.0000E-03  5.0000E-03
       1.0000E-03  1.0000E-03  1.0000E-03  1.0000E-03  1.0000E-03  1.0000E-03  1.0000E-03  2.0000E-03  2.0000E-03  2.5000E-03
       5.0000E-03  5.0000E-03  5.0000E-03  2.5000E-03  2.5000E-03  2.5000E-03  2.5000E-03  2.5000E-03  2.5000E-03  5.0000E-03
       5.0000E-03  5.0000E-03  5.0000E-03  5.0000E-03  2.5000E-03  2.5000E-03  2.5000E-03   0.000       0.000    
  55    0.000      1.0000E-03  1.0000E-03  1.0000E-03  2.0000E-03  2.0000E-03  2.0000E-03  5.0000E-03  5.0000E-03  5.0000E-03
       5.0000E-03  2.0000E-03  2.0000E-03  2.0000E-03  2.0000E-03  2.0000E-03  2.0000E-03  2.0000E-03  2.0000E-03  2.0000E-03
       2.0000E-03  2.0000E-03  2.5000E-03  2.5000E-03  2.5000E-03  2.5000E-03  2.5000E-03  2.5000E-03  2.5000E-03  2.5000E-03
       2.5000E-03  2.5000E-03  5.0000E-03  5.0000E-03  5.0000E-03  1.5000E-02  1.5000E-02  1.5000E-02  1.5000E-02  2.5000E-03
       2.0000E-03  1.0000E-03  1.0000E-03  1.0000E-03  1.0000E-03  1.0000E-03  2.0000E-03  5.0000E-03  5.0000E-03  5.0000E-03
       1.0000E-03  1.0000E-03  1.0000E-03  1.0000E-03  1.0000E-03  1.0000E-03  1.0000E-03  2.0000E-03  2.0000E-03  2.5000E-03
       5.0000E-03  5.0000E-03  5.0000E-03  2.5000E-03  2.5000E-03  2.5000E-03  2.5000E-03  2.5000E-03  2.5000E-03  5.0000E-03
       5.0000E-03  5.0000E-03  5.0000E-03  5.0000E-03  5.0000E-03  2.5000E-03  2.5000E-03   0.000       0.000    
  56    0.000      1.0000E-03  1.0000E-03  2.0000E-03  2.0000E-03  2.0000E-03  5.0000E-03  5.0000E-03  5.0000E-03  5.0000E-03
       5.0000E-03  2.0000E-03  2.0000E-03  2.0000E-03  2.0000E-03  2.0000E-03  2.0000E-03  2.0000E-03  2.0000E-03  2.0000E-03
       2.0000E-03  2.0000E-03  2.0000E-03  2.5000E-03  2.5000E-03  2.5000E-03  2.5000E-03  2.5000E-03  2.5000E-03  2.5000E-03
       2.5000E-03  2.5000E-03  5.0000E-03  5.0000E-03  5.0000E-03  1.5000E-02  1.5000E-02  1.5000E-02  1.5000E-02  2.5000E-03
       2.0000E-03  1.0000E-03  1.0000E-03  1.0000E-03  1.0000E-03  1.0000E-03  2.0000E-03  5.0000E-03  5.0000E-03  5.0000E-03
       1.0000E-03  1.0000E-03  1.0000E-03  1.0000E-03  1.0000E-03  1.0000E-03  1.0000E-03  2.0000E-03  2.0000E-03  2.5000E-03
       5.0000E-03  5.0000E-03  5.0000E-03  2.5000E-03  2.5000E-03  2.0000E-03  2.0000E-03  2.0000E-03  2.5000E-03  2.5000E-03
       5.0000E-03  5.0000E-03  5.0000E-03  5.0000E-03  5.0000E-03  2.5000E-03  2.5000E-03   0.000       0.000    
  57   1.0000E-03  1.0000E-03  2.0000E-03  2.0000E-03  2.0000E-03  5.0000E-03  5.0000E-03  5.0000E-03  5.0000E-03  2.0000E-03
       2.0000E-03  2.0000E-03  2.0000E-03  2.0000E-03  2.0000E-03  2.0000E-03  2.0000E-03  2.0000E-03  2.0000E-03  2.0000E-03
       2.0000E-03  2.0000E-03  2.0000E-03  2.0000E-03  2.0000E-03  2.0000E-03  2.5000E-03  2.5000E-03  2.5000E-03  2.5000E-03
       2.5000E-03  2.5000E-03  5.0000E-03  5.0000E-03  5.0000E-03  1.5000E-02  1.5000E-02  1.5000E-02  2.5000E-03  2.5000E-03
       2.0000E-03  1.0000E-03  1.0000E-03  1.0000E-03  1.0000E-03  1.0000E-03  2.0000E-03  5.0000E-03  5.0000E-03  5.0000E-03
       1.0000E-03  1.0000E-03  1.0000E-03  1.0000E-03  1.0000E-03  1.0000E-03  1.0000E-03  2.0000E-03  2.0000E-03  2.0000E-03
       2.5000E-03  5.0000E-03  5.0000E-03  2.5000E-03  2.5000E-03  2.0000E-03  2.0000E-03  2.0000E-03  2.5000E-03  2.5000E-03
       5.0000E-03  5.0000E-03  2.5000E-03  2.5000E-03  2.5000E-03  2.5000E-03  2.5000E-03   0.000       0.000    
  58   1.0000E-03  1.0000E-03  2.0000E-03  2.0000E-03  2.0000E-03  5.0000E-03  2.0000E-03  2.0000E-03  2.0000E-03  2.0000E-03
       2.0000E-03  2.0000E-03  2.0000E-03  2.0000E-03  2.0000E-03  2.0000E-03  1.0000E-03  2.0000E-03  2.0000E-03  2.0000E-03
       2.0000E-03  2.0000E-03  2.0000E-03  2.0000E-03  2.0000E-03  2.0000E-03  2.0000E-03  2.5000E-03  2.5000E-03  2.5000E-03
       2.5000E-03  2.5000E-03  5.0000E-03  5.0000E-03  5.0000E-03  1.5000E-02  1.5000E-02  1.5000E-02  2.5000E-03  2.5000E-03
       2.0000E-03  1.0000E-03  1.0000E-03  1.0000E-03  1.0000E-03  1.0000E-03  1.0000E-03  2.0000E-03  5.0000E-03  5.0000E-03
       5.0000E-03  2.5000E-03  2.0000E-03  1.0000E-03  1.0000E-03  1.0000E-03  1.0000E-03  2.0000E-03  2.0000E-03  2.0000E-03
       2.5000E-03  5.0000E-03  2.5000E-03  2.5000E-03  2.5000E-03  2.0000E-03  2.0000E-03  2.0000E-03  2.5000E-03  5.0000E-03
       5.0000E-03  5.0000E-03  2.5000E-03  2.5000E-03  2.5000E-03  2.5000E-03  2.5000E-03   0.000       0.000    
  59   1.0000E-03  1.0000E-03  2.0000E-03  2.0000E-03  2.0000E-03  2.0000E-03  2.0000E-03  2.0000E-03  2.0000E-03  2.0000E-03
       2.0000E-03  1.0000E-03  1.0000E-03  1.0000E-03  1.0000E-03  1.0000E-03  1.0000E-03  2.0000E-03  2.0000E-03  2.0000E-03
       2.0000E-03  2.0000E-03  2.0000E-03  2.0000E-03  2.0000E-03  2.0000E-03  2.0000E-03  2.0000E-03  2.5000E-03  2.5000E-03
       2.5000E-03  2.5000E-03  5.0000E-03  5.0000E-03  5.0000E-03  5.0000E-03  1.5000E-02  1.5000E-02  1.5000E-02  2.5000E-03
       2.0000E-03  2.0000E-03  1.0000E-03  1.0000E-03  1.0000E-03  1.0000E-03  1.0000E-03  2.0000E-03  5.0000E-03  2.0000E-03
       5.0000E-03  2.5000E-03  2.0000E-03  1.0000E-03  1.0000E-03  1.0000E-03  1.0000E-03  2.0000E-03  2.0000E-03  2.0000E-03
       2.5000E-03  2.5000E-03  2.5000E-03  2.0000E-03  2.0000E-03  2.0000E-03  2.0000E-03  2.0000E-03  2.5000E-03  5.0000E-03
       5.0000E-03  5.0000E-03  2.5000E-03  2.5000E-03  2.5000E-03  2.5000E-03  2.5000E-03  2.5000E-03   0.000    
  60    0.000      1.0000E-03  1.0000E-03  2.0000E-03  2.0000E-03  2.0000E-03  1.0000E-03  1.0000E-03  1.0000E-03  1.0000E-03
       1.0000E-03  1.0000E-03  1.0000E-03   0.000       0.000       0.000      1.0000E-03  1.0000E-03  2.0000E-03  2.0000E-03
       2.0000E-03  2.0000E-03  2.0000E-03  2.0000E-03  2.0000E-03  2.0000E-03  2.0000E-03  2.0000E-03  2.0000E-03  2.5000E-03
       2.5000E-03  2.5000E-03  2.5000E-03  5.0000E-03  5.0000E-03  5.0000E-03  1.5000E-02  1.5000E-02  1.5000E-02  2.5000E-03
       2.0000E-03  2.0000E-03  1.0000E-03  1.0000E-03  1.0000E-03  1.0000E-03  1.0000E-03  2.0000E-03  2.0000E-03  2.0000E-03
       5.0000E-03  2.5000E-03  2.0000E-03  1.0000E-03  2.0000E-03  2.0000E-03  2.0000E-03  2.0000E-03  2.0000E-03  2.5000E-03
       2.5000E-03  2.5000E-03  2.0000E-03  2.0000E-03  2.0000E-03  2.0000E-03  2.0000E-03  2.0000E-03  2.5000E-03  5.0000E-03
       5.0000E-03  2.5000E-03  2.5000E-03  2.5000E-03  2.5000E-03  2.5000E-03  2.5000E-03  2.5000E-03  2.5000E-03
  61    0.000       0.000      1.0000E-03  1.0000E-03  1.0000E-03  1.0000E-03  1.0000E-03  1.0000E-03  1.0000E-03  1.0000E-03
       1.0000E-03   0.000       0.000       0.000       0.000       0.000       0.000      1.0000E-03  1.0000E-03  2.0000E-03
       2.0000E-03  2.0000E-03  2.0000E-03  2.0000E-03  2.0000E-03  2.0000E-03  2.0000E-03  2.0000E-03  2.0000E-03  2.0000E-03
       2.5000E-03  2.5000E-03  2.5000E-03  5.0000E-03  5.0000E-03  5.0000E-03  1.5000E-02  1.5000E-02  1.5000E-02  2.5000E-03
       2.0000E-03  2.0000E-03  1.0000E-03  1.0000E-03  1.0000E-03  1.0000E-03  1.0000E-03  1.0000E-03  2.0000E-03  2.0000E-03
       5.0000E-03  5.0000E-03  2.0000E-03  2.0000E-03  2.0000E-03  2.0000E-03  2.0000E-03  2.0000E-03  2.0000E-03  2.0000E-03
       2.0000E-03  2.0000E-03  2.0000E-03  2.0000E-03  2.0000E-03  2.0000E-03  2.0000E-03  2.0000E-03  2.5000E-03  5.0000E-03
       5.0000E-03  2.5000E-03  2.5000E-03  2.5000E-03  2.5000E-03  2.5000E-03  2.5000E-03  2.5000E-03  2.5000E-03
  62    0.000       0.000       0.000      1.0000E-03   0.000       0.000       0.000       0.000       0.000       0.000    
        0.000       0.000       0.000       0.000       0.000       0.000       0.000       0.000       0.000      1.0000E-03
       2.0000E-03  2.0000E-03  2.0000E-03  2.0000E-03  2.0000E-03  2.0000E-03  2.0000E-03  2.0000E-03  2.0000E-03  2.0000E-03
       2.5000E-03  2.5000E-03  2.5000E-03  5.0000E-03  5.0000E-03  5.0000E-03  1.5000E-02  1.5000E-02  5.0000E-03  2.5000E-03
       2.0000E-03  2.0000E-03  1.0000E-03  1.0000E-03  1.0000E-03  1.0000E-03  1.0000E-03  1.0000E-03  2.0000E-03  2.0000E-03
       2.0000E-03  2.0000E-03  5.0000E-03  2.0000E-03  2.0000E-03  2.0000E-03  2.0000E-03  2.0000E-03  2.0000E-03  2.0000E-03
       2.0000E-03  2.0000E-03  2.0000E-03  2.0000E-03  2.0000E-03  2.0000E-03  2.0000E-03  2.0000E-03  2.5000E-03  5.0000E-03
       2.5000E-03  2.5000E-03  2.5000E-03  2.5000E-03  2.5000E-03  2.5000E-03  2.5000E-03  2.0000E-03  2.0000E-03
  63    0.000       0.000       0.000       0.000       0.000       0.000       0.000       0.000       0.000       0.000    
        0.000       0.000       0.000       0.000       0.000       0.000       0.000       0.000       0.000      1.0000E-03
       1.0000E-03  1.0000E-03  2.0000E-03  2.0000E-03  2.0000E-03  2.0000E-03  2.0000E-03  2.0000E-03  2.0000E-03  2.0000E-03
       2.0000E-03  2.5000E-03  2.5000E-03  5.0000E-03  5.0000E-03  5.0000E-03  1.5000E-02  1.5000E-02  5.0000E-03  2.5000E-03
       2.5000E-03  2.0000E-03  2.0000E-03  1.0000E-03  1.0000E-03  1.0000E-03  1.0000E-03  1.0000E-03  1.0000E-03  1.0000E-03
       2.0000E-03  2.0000E-03  5.0000E-03  5.0000E-03  2.0000E-03  2.0000E-03  2.0000E-03  2.0000E-03  2.0000E-03  2.0000E-03
       2.0000E-03  2.0000E-03  2.0000E-03  2.0000E-03  2.0000E-03  2.0000E-03  2.0000E-03  2.0000E-03  2.5000E-03  2.5000E-03
       2.5000E-03  2.5000E-03  2.5000E-03  2.5000E-03  2.5000E-03  2.5000E-03  2.5000E-03  2.0000E-03  2.0000E-03
  64    0.000       0.000       0.000       0.000       0.000       0.000       0.000       0.000       0.000       0.000    
        0.000       0.000       0.000       0.000       0.000       0.000       0.000       0.000       0.000       0.000    
        0.000       0.000       0.000       0.000      2.0000E-03  2.0000E-03  2.0000E-03  2.0000E-03  2.0000E-03  2.0000E-03
       2.0000E-03  2.0000E-03  2.5000E-03  2.5000E-03  5.0000E-03  5.0000E-03  5.0000E-03  1.5000E-02  1.5000E-02  5.0000E-03
       2.0000E-03  2.0000E-03  2.0000E-03  1.0000E-03  1.0000E-03  1.0000E-03  1.0000E-03  1.0000E-03  1.0000E-03  1.0000E-03
       2.0000E-03  2.0000E-03  2.5000E-03  5.0000E-03  2.0000E-03  2.0000E-03  2.0000E-03  2.0000E-03  2.0000E-03  2.0000E-03
       2.0000E-03  2.0000E-03  2.0000E-03  2.0000E-03  2.0000E-03  2.0000E-03  2.0000E-03  2.5000E-03  2.5000E-03  2.5000E-03
       2.5000E-03  2.5000E-03  2.5000E-03  2.5000E-03  2.5000E-03  2.5000E-03  2.0000E-03  2.0000E-03  2.0000E-03
  65    0.000       0.000       0.000       0.000       0.000       0.000       0.000       0.000       0.000       0.000    
        0.000       0.000       0.000       0.000       0.000       0.000       0.000       0.000       0.000       0.000    
        0.000       0.000       0.000       0.000       0.000       0.000       0.000       0.000       0.000       0.000    
        0.000       0.000       0.000      2.5000E-03  5.0000E-03  5.0000E-03  5.0000E-03  5.0000E-03  5.0000E-03  5.0000E-03
       2.0000E-03  2.0000E-03  2.0000E-03  1.0000E-03  1.0000E-03   0.000       0.000       0.000       0.000      1.0000E-03
       1.0000E-03  2.0000E-03  2.5000E-03  2.5000E-03  2.0000E-03  2.0000E-03  2.0000E-03  2.0000E-03  2.0000E-03  2.0000E-03
       2.0000E-03  2.0000E-03  2.0000E-03  2.0000E-03  2.0000E-03  2.0000E-03  2.0000E-03  2.5000E-03  2.5000E-03  2.5000E-03
       2.5000E-03  2.5000E-03  2.5000E-03  2.5000E-03  2.5000E-03  2.5000E-03  2.5000E-03  2.0000E-03  2.0000E-03
  66    0.000       0.000       0.000       0.000       0.000       0.000       0.000       0.000       0.000       0.000    
        0.000       0.000       0.000       0.000       0.000       0.000       0.000       0.000       0.000       0.000    
        0.000       0.000       0.000       0.000       0.000       0.000       0.000       0.000       0.000       0.000    
        0.000       0.000       0.000       0.000       0.000      2.5000E-03  2.5000E-03   0.000       0.000       0.000    
        0.000       0.000       0.000       0.000       0.000       0.000       0.000       0.000       0.000       0.000    
       1.0000E-03  2.0000E-03  2.5000E-03  2.5000E-03  2.5000E-03  2.0000E-03  2.0000E-03  2.0000E-03  2.0000E-03  2.0000E-03
       2.0000E-03  2.0000E-03  2.0000E-03  2.0000E-03  2.0000E-03  2.0000E-03  2.0000E-03  2.0000E-03  2.5000E-03  2.5000E-03
       2.5000E-03  2.5000E-03  2.5000E-03  2.5000E-03  2.5000E-03  2.5000E-03  2.5000E-03  2.0000E-03  2.0000E-03
  67    0.000       0.000       0.000       0.000       0.000       0.000       0.000       0.000       0.000       0.000    
        0.000       0.000       0.000       0.000       0.000       0.000       0.000       0.000       0.000       0.000    
        0.000       0.000       0.000       0.000       0.000       0.000       0.000       0.000       0.000       0.000    
        0.000       0.000       0.000       0.000       0.000       0.000       0.000       0.000       0.000       0.000    
        0.000       0.000       0.000       0.000       0.000       0.000       0.000       0.000       0.000       0.000    
        0.000       0.000      1.0000E-03  2.5000E-03  2.0000E-03  2.0000E-03  2.0000E-03  2.0000E-03  2.0000E-03  1.0000E-03
       1.0000E-03  1.0000E-03  1.0000E-03  1.0000E-03  2.0000E-03  2.0000E-03  2.0000E-03  2.0000E-03  2.5000E-03  2.5000E-03
       2.5000E-03   0.000       0.000       0.000       0.000       0.000       0.000       0.000       0.000    
  68    0.000       0.000       0.000       0.000       0.000       0.000       0.000       0.000       0.000       0.000    
        0.000       0.000       0.000       0.000       0.000       0.000       0.000       0.000       0.000       0.000    
        0.000       0.000       0.000       0.000       0.000       0.000       0.000       0.000       0.000       0.000    
        0.000       0.000       0.000       0.000       0.000       0.000       0.000       0.000       0.000       0.000    
        0.000       0.000       0.000       0.000       0.000       0.000       0.000       0.000       0.000       0.000    
        0.000       0.000       0.000      1.0000E-03  2.0000E-03  2.0000E-03  2.0000E-03  1.0000E-03  1.0000E-03  1.0000E-03
       1.0000E-03  1.0000E-03  1.0000E-03  1.0000E-03  2.0000E-03  2.0000E-03  2.0000E-03  2.5000E-03   0.000       0.000    
        0.000       0.000       0.000       0.000       0.000       0.000       0.000       0.000       0.000    
  69    0.000       0.000       0.000       0.000       0.000       0.000       0.000       0.000       0.000       0.000    
        0.000       0.000       0.000       0.000       0.000       0.000       0.000       0.000       0.000       0.000    
        0.000       0.000       0.000       0.000       0.000       0.000       0.000       0.000       0.000       0.000    
        0.000       0.000       0.000       0.000       0.000       0.000       0.000       0.000       0.000       0.000    
        0.000       0.000       0.000       0.000       0.000       0.000       0.000       0.000       0.000       0.000    
        0.000       0.000       0.000       0.000       0.000       0.000       0.000       0.000       0.000       0.000    
       1.0000E-03  1.0000E-03  1.0000E-03  1.0000E-03  2.5000E-03  2.5000E-03  2.5000E-03   0.000       0.000       0.000    
        0.000       0.000       0.000       0.000       0.000       0.000       0.000       0.000       0.000    
  70    0.000       0.000       0.000       0.000       0.000       0.000       0.000       0.000       0.000       0.000    
        0.000       0.000       0.000       0.000       0.000       0.000       0.000       0.000       0.000       0.000    
        0.000       0.000       0.000       0.000       0.000       0.000       0.000       0.000       0.000       0.000    
        0.000       0.000       0.000       0.000       0.000       0.000       0.000       0.000       0.000       0.000    
        0.000       0.000       0.000       0.000       0.000       0.000       0.000       0.000       0.000       0.000    
        0.000       0.000       0.000       0.000       0.000       0.000       0.000       0.000       0.000       0.000    
        0.000      1.0000E-03  1.0000E-03  1.0000E-03  2.5000E-03  2.5000E-03   0.000       0.000       0.000       0.000    
        0.000       0.000       0.000       0.000       0.000       0.000       0.000       0.000       0.000    
  71    0.000       0.000       0.000       0.000       0.000       0.000       0.000       0.000       0.000       0.000    
        0.000       0.000       0.000       0.000       0.000       0.000       0.000       0.000       0.000       0.000    
        0.000       0.000       0.000       0.000       0.000       0.000       0.000       0.000       0.000       0.000    
        0.000       0.000       0.000       0.000       0.000       0.000       0.000       0.000       0.000       0.000    
        0.000       0.000       0.000       0.000       0.000       0.000       0.000       0.000       0.000       0.000    
        0.000       0.000       0.000       0.000       0.000       0.000       0.000       0.000       0.000       0.000    
        0.000       0.000      1.0000E-03  2.0000E-03   0.000       0.000       0.000       0.000       0.000       0.000    
        0.000       0.000       0.000       0.000       0.000       0.000       0.000       0.000       0.000    

     BROOKS-COREY EPSILON =   4.00000    



            SATURATED WATER CONTENT
 READING ON UNIT   14 WITH FORMAT: (FREE)              

            1           2           3           4           5           6           7           8           9          10
           11          12          13          14          15          16          17          18          19          20
           21          22          23          24          25          26          27          28          29          30
           31          32          33          34          35          36          37          38          39          40
           41          42          43          44          45          46          47          48          49          50
           51          52          53          54          55          56          57          58          59          60
           61          62          63          64          65          66          67          68          69          70
           71          72          73          74          75          76          77          78          79
 ........................................................................................................................
   1    0.000       0.000       0.000       0.000       0.000       0.000       0.000       0.000       0.000       0.000    
        0.000       0.000       0.000       0.000       0.000       0.000       0.000       0.000       0.000       0.000    
        0.000       0.000       0.000       0.000       0.000       0.000       0.000       0.000       0.000       0.000    
        0.000       0.000       0.000       0.000       0.000       0.000       0.000       0.000       0.000       0.000    
        0.000       0.000       0.000       0.000       0.000       0.000       0.000       0.000       0.000       0.000    
        0.000      0.1300      0.1300       0.000       0.000       0.000       0.000       0.000       0.000       0.000    
        0.000       0.000       0.000       0.000       0.000       0.000       0.000       0.000       0.000       0.000    
        0.000       0.000       0.000       0.000       0.000       0.000       0.000       0.000       0.000    
   2    0.000       0.000       0.000       0.000       0.000       0.000       0.000       0.000       0.000       0.000    
        0.000       0.000       0.000       0.000       0.000       0.000       0.000       0.000       0.000       0.000    
        0.000       0.000       0.000       0.000       0.000       0.000       0.000       0.000       0.000       0.000    
        0.000       0.000       0.000       0.000       0.000       0.000       0.000       0.000       0.000       0.000    
        0.000       0.000       0.000       0.000       0.000       0.000       0.000       0.000       0.000       0.000    
        0.000      0.1300      0.1400      0.1400       0.000       0.000       0.000       0.000       0.000       0.000    
        0.000       0.000       0.000       0.000       0.000       0.000       0.000       0.000       0.000       0.000    
        0.000       0.000       0.000       0.000       0.000       0.000       0.000       0.000       0.000    
   3    0.000       0.000       0.000       0.000       0.000       0.000       0.000       0.000       0.000       0.000    
        0.000       0.000       0.000       0.000       0.000       0.000       0.000       0.000       0.000       0.000    
        0.000       0.000       0.000       0.000       0.000       0.000       0.000       0.000       0.000       0.000    
        0.000       0.000       0.000       0.000       0.000       0.000       0.000       0.000       0.000       0.000    
        0.000       0.000       0.000       0.000       0.000       0.000       0.000       0.000       0.000       0.000    
        0.000      0.1300      0.1400      0.2000       0.000       0.000       0.000       0.000       0.000       0.000    
        0.000       0.000       0.000       0.000       0.000       0.000       0.000       0.000       0.000       0.000    
        0.000       0.000       0.000       0.000       0.000       0.000       0.000       0.000       0.000    
   4    0.000       0.000       0.000       0.000       0.000       0.000       0.000       0.000       0.000       0.000    
        0.000       0.000       0.000       0.000       0.000       0.000       0.000       0.000       0.000       0.000    
        0.000       0.000       0.000       0.000       0.000       0.000       0.000       0.000       0.000       0.000    
        0.000       0.000       0.000       0.000       0.000       0.000       0.000       0.000       0.000       0.000    
        0.000       0.000       0.000       0.000       0.000       0.000       0.000       0.000       0.000       0.000    
        0.000      0.1400      0.1400      0.2000      0.2000       0.000       0.000       0.000       0.000       0.000    
        0.000       0.000       0.000       0.000       0.000       0.000       0.000       0.000       0.000       0.000    
        0.000       0.000       0.000       0.000       0.000       0.000       0.000       0.000       0.000    
   5    0.000       0.000       0.000       0.000       0.000       0.000       0.000       0.000       0.000       0.000    
        0.000       0.000       0.000       0.000       0.000       0.000       0.000       0.000       0.000       0.000    
        0.000       0.000       0.000       0.000       0.000       0.000       0.000       0.000       0.000       0.000    
        0.000       0.000       0.000       0.000       0.000       0.000       0.000       0.000       0.000       0.000    
        0.000       0.000       0.000       0.000       0.000       0.000       0.000       0.000       0.000       0.000    
        0.000      0.1400      0.1400      0.1400      0.2000      0.1400      0.1400       0.000       0.000       0.000    
        0.000       0.000       0.000       0.000       0.000       0.000       0.000       0.000       0.000       0.000    
        0.000       0.000       0.000       0.000       0.000       0.000       0.000       0.000       0.000    
   6    0.000       0.000       0.000       0.000       0.000       0.000       0.000       0.000       0.000       0.000    
        0.000       0.000       0.000       0.000       0.000       0.000       0.000       0.000       0.000       0.000    
        0.000       0.000       0.000       0.000       0.000       0.000       0.000       0.000       0.000       0.000    
        0.000       0.000       0.000       0.000       0.000       0.000       0.000       0.000       0.000       0.000    
        0.000       0.000       0.000       0.000       0.000       0.000       0.000       0.000       0.000       0.000    
        0.000      0.1400      0.1400      0.1400      0.2000      0.2000      0.1400      0.1400      0.1400       0.000    
        0.000       0.000       0.000      0.1400      0.1400       0.000       0.000       0.000       0.000       0.000    
        0.000       0.000       0.000       0.000       0.000       0.000       0.000       0.000       0.000    
   7    0.000       0.000       0.000       0.000       0.000       0.000       0.000       0.000       0.000       0.000    
        0.000       0.000       0.000       0.000       0.000       0.000       0.000       0.000       0.000       0.000    
        0.000       0.000       0.000       0.000       0.000       0.000       0.000       0.000       0.000       0.000    
        0.000       0.000       0.000       0.000       0.000       0.000       0.000       0.000       0.000       0.000    
        0.000       0.000       0.000       0.000       0.000       0.000       0.000       0.000       0.000       0.000    
        0.000      0.1400      0.1400      0.1400      0.2000      0.2000      0.2000      0.1400      0.1400      0.1400    
       0.1400      0.1400      0.1400      0.1400      0.1400      0.1400       0.000       0.000       0.000       0.000    
        0.000       0.000       0.000       0.000       0.000       0.000       0.000       0.000       0.000    
   8    0.000       0.000       0.000       0.000       0.000       0.000       0.000       0.000       0.000       0.000    
        0.000       0.000       0.000       0.000       0.000       0.000       0.000       0.000       0.000       0.000    
        0.000       0.000       0.000       0.000       0.000       0.000       0.000       0.000       0.000       0.000    
        0.000       0.000       0.000       0.000       0.000       0.000       0.000       0.000       0.000       0.000    
        0.000       0.000       0.000       0.000       0.000       0.000       0.000       0.000       0.000       0.000    
        0.000      0.1400      0.1400      0.1400      0.2000      0.2000      0.2000      0.1400      0.1400      0.1400    
       0.1400      0.1400      0.1400      0.1400      0.1400      0.1400      0.1400      0.1400       0.000       0.000    
        0.000       0.000       0.000       0.000       0.000       0.000       0.000       0.000       0.000    
   9    0.000       0.000       0.000       0.000       0.000       0.000       0.000       0.000       0.000       0.000    
        0.000       0.000       0.000       0.000       0.000       0.000       0.000       0.000       0.000       0.000    
        0.000       0.000       0.000       0.000       0.000       0.000       0.000       0.000       0.000       0.000    
        0.000       0.000       0.000       0.000       0.000       0.000       0.000       0.000       0.000       0.000    
        0.000       0.000       0.000       0.000       0.000       0.000       0.000       0.000       0.000       0.000    
       0.1300      0.1400      0.1400      0.1400      0.2000      0.2000      0.2000      0.1400      0.1400      0.1400    
       0.1400      0.1400      0.1400      0.1400      0.1400      0.1400      0.1400      0.1400      0.1400       0.000    
        0.000       0.000       0.000       0.000       0.000       0.000       0.000       0.000       0.000    
  10    0.000       0.000       0.000       0.000       0.000       0.000       0.000       0.000       0.000       0.000    
        0.000       0.000       0.000       0.000       0.000       0.000       0.000       0.000       0.000       0.000    
        0.000       0.000       0.000       0.000       0.000       0.000       0.000       0.000       0.000       0.000    
        0.000       0.000       0.000       0.000       0.000       0.000       0.000       0.000       0.000       0.000    
        0.000       0.000       0.000       0.000       0.000       0.000       0.000       0.000       0.000      0.1400    
       0.1400      0.1400      0.1400      0.1400      0.1400      0.2000      0.2000      0.2000      0.1400      0.1400    
       0.1400      0.1400      0.1400      0.1400      0.1400      0.1400      0.1400      0.1400      0.1400      0.1400    
        0.000       0.000       0.000       0.000       0.000       0.000       0.000       0.000       0.000    
  11    0.000       0.000       0.000       0.000       0.000       0.000       0.000       0.000       0.000       0.000    
        0.000       0.000       0.000       0.000       0.000       0.000       0.000       0.000       0.000       0.000    
        0.000       0.000       0.000       0.000       0.000       0.000       0.000       0.000       0.000       0.000    
        0.000       0.000       0.000       0.000       0.000       0.000       0.000       0.000       0.000       0.000    
        0.000       0.000       0.000       0.000       0.000       0.000       0.000       0.000      0.1400      0.1400    
       0.1400      0.1400      0.1400      0.1400      0.1400      0.2000      0.2000      0.2000      0.1400      0.1400    
       0.1400      0.1400      0.1400      0.1400      0.1400      0.1400      0.1400      0.1400      0.1400      0.1400    
       0.1400       0.000       0.000       0.000       0.000       0.000       0.000       0.000       0.000    
  12    0.000       0.000       0.000       0.000       0.000       0.000       0.000       0.000       0.000       0.000    
        0.000       0.000       0.000       0.000       0.000       0.000       0.000       0.000       0.000       0.000    
        0.000       0.000       0.000       0.000       0.000       0.000       0.000       0.000       0.000       0.000    
        0.000       0.000       0.000       0.000       0.000       0.000       0.000       0.000       0.000       0.000    
        0.000      0.1300      0.1300       0.000       0.000       0.000       0.000      0.1300      0.1400      0.1400    
       0.1400      0.1400      0.1400      0.1400      0.1400      0.2000      0.2000      0.2000      0.1400      0.1400    
       0.1400      0.1400      0.1400      0.1400      0.1400      0.1400      0.1400      0.1400      0.1400      0.1400    
       0.1400       0.000       0.000       0.000       0.000       0.000       0.000       0.000       0.000    
  13    0.000       0.000       0.000       0.000       0.000       0.000       0.000       0.000       0.000       0.000    
        0.000       0.000       0.000       0.000       0.000       0.000       0.000       0.000       0.000       0.000    
        0.000       0.000       0.000       0.000       0.000       0.000       0.000       0.000       0.000       0.000    
        0.000       0.000       0.000       0.000       0.000       0.000       0.000       0.000      0.1300      0.1300    
       0.1300      0.1300      0.1300      0.1300      0.1300      0.1300      0.1300      0.1300      0.1400      0.1400    
       0.1400      0.1400      0.1400      0.1400      0.1400      0.2000      0.2000      0.2000      0.1400      0.1400    
       0.1400      0.1400      0.1400      0.1400      0.1400      0.1400      0.1400      0.1400      0.1400      0.1400    
       0.1400      0.1400       0.000       0.000       0.000       0.000       0.000       0.000       0.000    
  14    0.000       0.000       0.000       0.000       0.000       0.000       0.000       0.000       0.000       0.000    
        0.000       0.000       0.000       0.000       0.000       0.000       0.000       0.000       0.000       0.000    
        0.000       0.000       0.000       0.000       0.000       0.000       0.000       0.000       0.000       0.000    
        0.000       0.000       0.000       0.000       0.000       0.000       0.000       0.000      0.1300      0.1300    
       0.1300      0.1300      0.1300      0.1300      0.1400      0.1400      0.1400      0.1400      0.1400      0.1400    
       0.1400      0.1400      0.1400      0.1400      0.1400      0.2000      0.2000      0.2000      0.2000      0.2000    
       0.1400      0.1400      0.1400      0.1400      0.1400      0.1400      0.1400      0.2000      0.1400      0.1400    
       0.1400      0.1400      0.1400       0.000       0.000       0.000       0.000       0.000       0.000    
  15    0.000       0.000       0.000       0.000       0.000       0.000       0.000       0.000       0.000       0.000    
        0.000       0.000       0.000       0.000       0.000       0.000       0.000       0.000       0.000       0.000    
        0.000       0.000       0.000       0.000       0.000       0.000       0.000       0.000       0.000       0.000    
        0.000       0.000       0.000       0.000       0.000       0.000       0.000      0.1300      0.1300      0.1300    
       0.1400      0.1400      0.1400      0.1400      0.1400      0.1400      0.1400      0.1400      0.1400      0.1400    
       0.1400      0.1400      0.1400      0.1400      0.1400      0.1400      0.2000      0.2000      0.2000      0.2000    
       0.2000      0.1400      0.1400      0.2000      0.2000      0.2000      0.2000      0.2000      0.2000      0.1400    
       0.1400      0.1400      0.1400       0.000       0.000       0.000       0.000       0.000       0.000    
  16    0.000       0.000       0.000       0.000       0.000       0.000       0.000       0.000       0.000       0.000    
        0.000       0.000       0.000       0.000       0.000       0.000       0.000       0.000       0.000       0.000    
        0.000       0.000       0.000       0.000       0.000       0.000       0.000       0.000       0.000       0.000    
        0.000       0.000       0.000       0.000       0.000       0.000      0.1300      0.1300      0.1300      0.1300    
       0.1300      0.1400      0.1400      0.1400      0.1400      0.1400      0.1400      0.1400      0.1400      0.1400    
       0.1400      0.1400      0.1400      0.1400      0.1400      0.1400      0.2000      0.2000      0.2000      0.2000    
       0.2000      0.2000      0.2000      0.2000      0.2000      0.2000      0.2000      0.2000      0.2000      0.1400    
       0.1400      0.1400      0.1400      0.1400       0.000       0.000       0.000       0.000       0.000    
  17    0.000       0.000       0.000       0.000       0.000       0.000       0.000       0.000       0.000       0.000    
        0.000       0.000       0.000       0.000       0.000       0.000       0.000       0.000       0.000       0.000    
        0.000       0.000       0.000       0.000       0.000       0.000       0.000       0.000       0.000       0.000    
        0.000       0.000       0.000       0.000       0.000      0.1300      0.1300      0.1300      0.1300      0.1300    
       0.1300      0.1400      0.1400      0.1400      0.1400      0.1400      0.1400      0.1400      0.1400      0.1400    
       0.1400      0.1400      0.1400      0.1400      0.1400      0.1400      0.2000      0.2000      0.2000      0.2000    
       0.2000      0.2000      0.2000      0.2000      0.2000      0.2000      0.2000      0.2000      0.2000      0.1400    
       0.1400      0.1400      0.1400      0.1400       0.000       0.000       0.000       0.000       0.000    
  18    0.000       0.000       0.000       0.000       0.000       0.000       0.000       0.000       0.000       0.000    
        0.000       0.000       0.000       0.000       0.000       0.000       0.000       0.000       0.000       0.000    
        0.000       0.000       0.000       0.000       0.000       0.000       0.000       0.000       0.000       0.000    
        0.000       0.000       0.000       0.000      0.1300      0.1300      0.1300      0.1300      0.1300      0.1300    
       0.1300      0.1300      0.1300      0.1400      0.1400      0.1400      0.1400      0.1400      0.1400      0.1400    
       0.1400      0.1400      0.1400      0.1400      0.1400      0.1400      0.2000      0.2000      0.2000      0.2000    
       0.2000      0.2000      0.2000      0.2000      0.2000      0.2000      0.2000      0.2000      0.2000      0.2000    
       0.1400      0.1400      0.1400      0.1400       0.000       0.000       0.000       0.000       0.000    
  19    0.000       0.000       0.000       0.000       0.000       0.000       0.000       0.000       0.000       0.000    
        0.000       0.000       0.000       0.000       0.000       0.000       0.000       0.000       0.000       0.000    
        0.000       0.000       0.000       0.000       0.000       0.000       0.000       0.000       0.000       0.000    
        0.000       0.000       0.000      0.1300      0.1300      0.1300      0.1300      0.1300      0.1300      0.1300    
       0.1300      0.1300      0.1300      0.1300      0.1400      0.1400      0.1400      0.1400      0.1400      0.1400    
       0.1400      0.1400      0.1400      0.1400      0.1400      0.1400      0.1400      0.2000      0.2000      0.2000    
       0.2000      0.2000      0.2000      0.2000      0.2000      0.2000      0.2000      0.2000      0.2000      0.2000    
       0.1400      0.1400      0.1400      0.1400       0.000       0.000       0.000       0.000       0.000    
  20    0.000       0.000       0.000       0.000       0.000       0.000       0.000       0.000       0.000       0.000    
        0.000       0.000       0.000       0.000       0.000       0.000       0.000       0.000       0.000       0.000    
        0.000       0.000       0.000       0.000       0.000       0.000       0.000       0.000       0.000       0.000    
        0.000       0.000       0.000      0.1300      0.1300      0.1300      0.1300      0.1300      0.1300      0.1300    
       0.1300      0.1300      0.1300      0.1300      0.1400      0.1400      0.1400      0.1400      0.1400      0.1400    
       0.1400      0.1400      0.1400      0.1400      0.1400      0.1400      0.1400      0.2000      0.2000      0.2000    
       0.2000      0.2000      0.2000      0.2000      0.2000      0.2000      0.2000      0.2000      0.2000      0.2000    
       0.1400      0.1400      0.1400      0.1400       0.000       0.000       0.000       0.000       0.000    
  21    0.000       0.000       0.000       0.000       0.000       0.000       0.000       0.000       0.000       0.000    
        0.000       0.000       0.000       0.000       0.000       0.000       0.000       0.000       0.000       0.000    
        0.000       0.000       0.000       0.000       0.000       0.000       0.000       0.000       0.000       0.000    
        0.000       0.000      0.1300      0.1300      0.1300      0.1300      0.1300      0.1300      0.1300      0.1300    
       0.1300      0.1300      0.1300      0.1300      0.1300      0.1400      0.1400      0.1400      0.1400      0.1400    
       0.1400      0.1400      0.1400      0.1400      0.1400      0.1400      0.1400      0.1400      0.2000      0.2000    
       0.2000      0.2000      0.2000      0.2000      0.2000      0.2000      0.2000      0.2000      0.2000      0.1400    
       0.1400      0.1400      0.1400      0.1400      0.1400       0.000       0.000       0.000       0.000    
  22    0.000       0.000       0.000       0.000       0.000       0.000       0.000       0.000       0.000       0.000    
        0.000       0.000       0.000       0.000       0.000       0.000       0.000       0.000       0.000       0.000    
        0.000       0.000       0.000       0.000       0.000       0.000       0.000       0.000       0.000       0.000    
        0.000       0.000      0.1300      0.1300      0.1300      0.1300      0.1300      0.1300      0.1300      0.1300    
       0.1300      0.1300      0.1300      0.1300      0.1300      0.1400      0.1400      0.1400      0.1400      0.1400    
       0.1400      0.1400      0.1400      0.1400      0.1400      0.1400      0.1400      0.1400      0.1400      0.1400    
       0.1400      0.2000      0.2000      0.2000      0.2000      0.2000      0.2000      0.2000      0.2000      0.1400    
       0.1400      0.1400      0.1400      0.1400       0.000       0.000       0.000       0.000       0.000    
  23    0.000       0.000       0.000       0.000       0.000       0.000       0.000       0.000       0.000       0.000    
        0.000       0.000       0.000       0.000       0.000       0.000       0.000       0.000       0.000       0.000    
        0.000       0.000       0.000       0.000       0.000       0.000       0.000       0.000       0.000       0.000    
        0.000      0.1300      0.1300      0.1300      0.1300      0.1300      0.1300      0.1300      0.1300      0.1300    
       0.1300      0.1300      0.1300      0.1300      0.1300      0.1400      0.1400      0.2000      0.1400      0.1400    
       0.1400      0.1400      0.1400      0.1400      0.1400      0.1400      0.1400      0.1400      0.1400      0.1400    
       0.1400      0.1400      0.2000      0.2000      0.2000      0.2000      0.2000      0.2000      0.2000      0.1400    
       0.1400       0.000       0.000       0.000       0.000       0.000       0.000       0.000       0.000    
  24    0.000       0.000       0.000       0.000       0.000       0.000       0.000       0.000       0.000       0.000    
        0.000       0.000       0.000       0.000       0.000       0.000       0.000       0.000       0.000       0.000    
        0.000       0.000       0.000       0.000       0.000       0.000       0.000       0.000      0.1300      0.1300    
       0.1300      0.1300      0.1300      0.1300      0.1300      0.1300      0.1300      0.1300      0.1300      0.1300    
       0.1300      0.1300      0.1300      0.1300      0.1300      0.1400      0.1400      0.2000      0.2000      0.1400    
       0.1400      0.1400      0.1400      0.1400      0.1400      0.1400      0.1400      0.1400      0.1400      0.1400    
       0.1400      0.1400      0.1400      0.2000      0.2000      0.2000      0.2000      0.2000      0.2000      0.1400    
       0.1400       0.000       0.000       0.000       0.000       0.000       0.000       0.000       0.000    
  25    0.000       0.000       0.000       0.000       0.000       0.000       0.000       0.000       0.000       0.000    
        0.000       0.000       0.000       0.000       0.000       0.000       0.000       0.000       0.000       0.000    
        0.000       0.000       0.000       0.000       0.000       0.000       0.000      0.1300      0.1300      0.1300    
       0.1300      0.1300      0.1300      0.1300      0.1300      0.1300      0.1300      0.1300      0.1300      0.1300    
       0.1300      0.1300      0.1300      0.1300      0.1400      0.1400      0.1400      0.2000      0.2000      0.1400    
       0.1400      0.1400      0.1400      0.1400      0.1400      0.1400      0.1400      0.1400      0.1400      0.1400    
       0.1400      0.1400      0.1400      0.1400      0.1400      0.2000      0.2000      0.2000      0.2000      0.1400    
       0.1400       0.000       0.000       0.000       0.000       0.000       0.000       0.000       0.000    
  26    0.000       0.000       0.000       0.000       0.000       0.000       0.000       0.000       0.000       0.000    
        0.000       0.000       0.000       0.000       0.000       0.000       0.000       0.000       0.000       0.000    
        0.000       0.000       0.000       0.000       0.000      0.1300      0.1300      0.1300      0.1300      0.1300    
       0.1300      0.1300      0.1300      0.1300      0.1300      0.1300      0.1300      0.1300      0.1300      0.1300    
       0.1300      0.1300      0.1400      0.1400      0.1400      0.1400      0.1400      0.1400      0.2000      0.2000    
       0.2000      0.1400      0.1400      0.1400      0.1400      0.1400      0.1400      0.1400      0.1400      0.1400    
       0.1400      0.1400      0.1400      0.1400      0.1400      0.2000      0.2000      0.2000      0.2000      0.1400    
       0.1400       0.000       0.000       0.000       0.000       0.000       0.000       0.000       0.000    
  27    0.000       0.000       0.000       0.000       0.000       0.000       0.000       0.000       0.000       0.000    
        0.000       0.000       0.000       0.000       0.000       0.000       0.000       0.000       0.000       0.000    
        0.000       0.000       0.000       0.000      0.1300      0.1300      0.1300      0.1300      0.1300      0.1300    
       0.1300      0.1300      0.1300      0.1300      0.1300      0.1300      0.1300      0.1300      0.1300      0.1300    
       0.1300      0.1400      0.1400      0.1400      0.1400      0.1400      0.1400      0.1400      0.1400      0.2000    
       0.2000      0.1400      0.1400      0.1400      0.1400      0.1400      0.1400      0.1400      0.1400      0.1400    
       0.1400      0.1400      0.1400      0.1400      0.1400      0.2000      0.2000      0.2000      0.2000      0.2000    
       0.1400       0.000       0.000       0.000       0.000       0.000       0.000       0.000       0.000    
  28    0.000       0.000       0.000       0.000       0.000       0.000       0.000       0.000       0.000       0.000    
        0.000       0.000       0.000       0.000       0.000       0.000       0.000       0.000       0.000       0.000    
        0.000       0.000       0.000      0.1300      0.1300      0.1300      0.1300      0.1300      0.1300      0.1300    
       0.1300      0.1300      0.1300      0.1300      0.1300      0.1300      0.1300      0.1300      0.1400      0.1400    
       0.1400      0.1400      0.1400      0.1400      0.1400      0.1400      0.1400      0.1400      0.1400      0.1400    
       0.2000      0.2000      0.1400      0.1400      0.1400      0.1400      0.1400      0.1400      0.1400      0.1400    
       0.1400      0.1400      0.1400      0.1400      0.1400      0.1400      0.2000      0.2000      0.2000      0.2000    
       0.1400      0.1400       0.000       0.000       0.000       0.000       0.000       0.000       0.000    
  29    0.000       0.000       0.000       0.000       0.000       0.000       0.000       0.000       0.000       0.000    
        0.000       0.000       0.000       0.000       0.000       0.000       0.000       0.000       0.000       0.000    
        0.000      0.1300      0.1300      0.1300      0.1300      0.1300      0.1300      0.1300      0.1300      0.1300    
       0.1300      0.1300      0.1300      0.1300      0.1300      0.1300      0.1300      0.1400      0.1400      0.1400    
       0.1400      0.1400      0.1400      0.1400      0.1400      0.1400      0.1400      0.1400      0.1400      0.1400    
       0.2000      0.2000      0.1400      0.1400      0.1400      0.1400      0.1400      0.1400      0.1400      0.1400    
       0.1400      0.1400      0.1400      0.1400      0.1400      0.1400      0.2000      0.2000      0.2000      0.2000    
       0.1400      0.1400       0.000       0.000       0.000       0.000       0.000       0.000       0.000    
  30    0.000       0.000       0.000       0.000       0.000       0.000       0.000       0.000       0.000       0.000    
        0.000       0.000       0.000       0.000       0.000       0.000       0.000       0.000       0.000      0.1300    
       0.1300      0.1300      0.1300      0.1300      0.1300      0.1300      0.1300      0.1300      0.1300      0.1300    
       0.1300      0.1300      0.1300      0.1300      0.1300      0.1300      0.1300      0.1400      0.1400      0.1400    
       0.1400      0.1400      0.1400      0.1400      0.1400      0.1400      0.1400      0.1400      0.1400      0.1400    
       0.2000      0.2000      0.1400      0.1400      0.1400      0.1400      0.1400      0.1400      0.1400      0.1400    
       0.1400      0.1400      0.1400      0.1400      0.1400      0.1400      0.2000      0.2000      0.2000      0.2000    
       0.1400      0.1400       0.000       0.000       0.000       0.000       0.000       0.000       0.000    
  31    0.000       0.000       0.000       0.000       0.000       0.000       0.000       0.000       0.000       0.000    
        0.000       0.000       0.000       0.000       0.000       0.000       0.000       0.000      0.1300      0.1300    
       0.1300      0.1300      0.1300      0.1300      0.1300      0.1300      0.1300      0.1300      0.1300      0.1300    
       0.1300      0.1300      0.1300      0.1300      0.1300      0.1300      0.1400      0.1400      0.1400      0.1400    
       0.1400      0.1400      0.1400      0.2000      0.1400      0.1400      0.1400      0.1400      0.1400      0.1400    
       0.2000      0.2000      0.1400      0.1400      0.1400      0.1400      0.1400      0.1400      0.1400      0.1400    
       0.1400      0.1400      0.1400      0.1400      0.1400      0.1400      0.2000      0.2000      0.2000      0.2000    
       0.1400      0.1400       0.000       0.000       0.000       0.000       0.000       0.000       0.000    
  32    0.000       0.000       0.000       0.000       0.000       0.000       0.000       0.000       0.000       0.000    
        0.000       0.000       0.000       0.000       0.000       0.000      0.1300      0.1300      0.1300      0.1300    
       0.1300      0.1300      0.1300      0.1300      0.1300      0.1300      0.1300      0.1300      0.1300      0.1300    
       0.1300      0.1300      0.1300      0.1300      0.1300      0.1300      0.1400      0.1400      0.2000      0.2000    
       0.2000      0.2000      0.2000      0.2000      0.1400      0.1400      0.1400      0.1400      0.1400      0.1400    
       0.2000      0.2000      0.2000      0.1400      0.1400      0.1400      0.1400      0.1400      0.1400      0.1400    
       0.1400      0.1400      0.1400      0.1400      0.1400      0.1400      0.1400      0.2000      0.2000      0.2000    
       0.2000      0.1400       0.000       0.000       0.000       0.000       0.000       0.000       0.000    
  33    0.000       0.000       0.000       0.000       0.000       0.000       0.000       0.000       0.000       0.000    
        0.000       0.000       0.000       0.000       0.000      0.1300      0.1300      0.1300      0.1300      0.1300    
       0.1300      0.1300      0.1300      0.1300      0.1300      0.1300      0.1300      0.1300      0.1300      0.1300    
       0.1300      0.1300      0.1300      0.1300      0.1400      0.1400      0.1400      0.2000      0.2000      0.2000    
       0.2000      0.2000      0.2000      0.2000      0.2000      0.1400      0.1400      0.1400      0.1400      0.1400    
       0.2000      0.2000      0.2000      0.2000      0.2000      0.2000      0.1400      0.1400      0.1400      0.1400    
       0.1400      0.1400      0.1400      0.1400      0.1400      0.1400      0.1400      0.2000      0.2000      0.2000    
       0.2000      0.1400      0.1400       0.000       0.000       0.000       0.000       0.000       0.000    
  34    0.000       0.000       0.000       0.000       0.000       0.000       0.000       0.000       0.000       0.000    
        0.000       0.000       0.000       0.000      0.1300      0.1300      0.1300      0.1300      0.1300      0.1300    
       0.1300      0.1300      0.1300      0.1300      0.1300      0.1300      0.1300      0.2000      0.1300      0.1300    
       0.1300      0.1300      0.1300      0.1300      0.1400      0.1400      0.2000      0.2000      0.2000      0.2000    
       0.2000      0.2000      0.2000      0.2000      0.2000      0.2000      0.2000      0.2000      0.2000      0.2000    
       0.2000      0.2000      0.2000      0.2000      0.2000      0.2000      0.1400      0.1400      0.1400      0.1400    
       0.1400      0.1400      0.1400      0.1400      0.1400      0.1400      0.1400      0.2000      0.2000      0.2000    
       0.1400      0.1300      0.1300       0.000       0.000       0.000       0.000       0.000       0.000    
  35    0.000       0.000       0.000       0.000       0.000       0.000       0.000       0.000       0.000       0.000    
        0.000       0.000       0.000      0.1300      0.1300      0.1300      0.1300      0.1300      0.1300      0.1300    
       0.1300      0.1300      0.1300      0.1300      0.2000      0.2000      0.2000      0.2000      0.2000      0.2000    
       0.1300      0.1300      0.2000      0.2000      0.2000      0.2000      0.2000      0.2000      0.2000      0.2000    
       0.2000      0.2000      0.2000      0.2000      0.2000      0.2000      0.2000      0.2000      0.2000      0.2000    
       0.2000      0.2000      0.2000      0.2000      0.2000      0.2000      0.1400      0.1400      0.1400      0.1400    
       0.1400      0.1400      0.1400      0.1400      0.1400      0.1400      0.1400      0.2000      0.2000      0.1400    
       0.1400      0.1300      0.1300      0.1300       0.000       0.000       0.000       0.000       0.000    
  36    0.000       0.000       0.000       0.000       0.000       0.000       0.000       0.000       0.000       0.000    
        0.000       0.000       0.000      0.1300      0.1300      0.1300      0.1300      0.1300      0.1300      0.1300    
       0.1300      0.1300      0.1300      0.1300      0.2000      0.2000      0.2000      0.2000      0.2000      0.2000    
       0.2000      0.2000      0.2000      0.2000      0.2000      0.2000      0.2000      0.2000      0.2000      0.2000    
       0.2000      0.2000      0.2000      0.2000      0.2000      0.2000      0.2000      0.2000      0.2000      0.2000    
       0.2000      0.2000      0.2000      0.2000      0.2000      0.2000      0.2000      0.2000      0.2000      0.1400    
       0.1400      0.1400      0.2000      0.2000      0.1400      0.1400      0.1400      0.2000      0.2000      0.1400    
       0.1400      0.1400      0.1300      0.1300      0.1300       0.000       0.000       0.000       0.000    
  37    0.000       0.000       0.000       0.000       0.000       0.000       0.000       0.000       0.000       0.000    
        0.000       0.000      0.1300      0.1300      0.1300      0.1300      0.1300      0.1300      0.1300      0.1300    
       0.1300      0.1300      0.1300      0.2000      0.2000      0.2000      0.2000      0.2000      0.2000      0.2000    
       0.2000      0.2000      0.2000      0.2000      0.2000      0.2000      0.2000      0.2000      0.1400      0.1400    
       0.1400      0.1400      0.2000      0.2000      0.2000      0.2000      0.2000      0.2000      0.2000      0.2000    
       0.2000      0.2000      0.2000      0.2000      0.2000      0.2000      0.2000      0.2000      0.2000      0.2000    
       0.2000      0.2000      0.2000      0.2000      0.2000      0.2000      0.2000      0.2000      0.2000      0.2000    
       0.1400      0.1400      0.1300      0.1300      0.1300       0.000       0.000       0.000       0.000    
  38    0.000       0.000       0.000       0.000       0.000       0.000       0.000       0.000       0.000       0.000    
       0.1300      0.1300      0.1300      0.1300      0.1300      0.1300      0.1300      0.1300      0.2000      0.2000    
       0.2000      0.2000      0.2000      0.2000      0.2000      0.2000      0.2000      0.2000      0.2000      0.2000    
       0.2000      0.2000      0.2000      0.2000      0.2000      0.2000      0.2000      0.2000      0.1400      0.1400    
       0.1400      0.1400      0.2000      0.2000      0.2000      0.2000      0.1400      0.2000      0.2000      0.2000    
       0.2000      0.2000      0.2000      0.2000      0.2000      0.2000      0.2000      0.2000      0.2000      0.2000    
       0.2000      0.2000      0.2000      0.2000      0.2000      0.2000      0.2000      0.2000      0.2000      0.2000    
       0.2000      0.1400      0.1300      0.1300      0.1300      0.1300       0.000       0.000       0.000    
  39    0.000       0.000       0.000       0.000       0.000       0.000       0.000      0.1300      0.1300      0.1300    
       0.1300      0.1300      0.1300      0.1300      0.2000      0.2000      0.2000      0.2000      0.2000      0.2000    
       0.2000      0.2000      0.2000      0.1400      0.1400      0.1400      0.1400      0.1400      0.2000      0.2000    
       0.2000      0.2000      0.2000      0.2000      0.2000      0.2000      0.2000      0.2000      0.1400      0.1400    
       0.1400      0.1400      0.1400      0.2000      0.2000      0.1400      0.1400      0.1400      0.2000      0.2000    
       0.2000      0.2000      0.2000      0.2000      0.2000      0.2000      0.2000      0.2000      0.2000      0.2000    
       0.2000      0.2000      0.2000      0.2000      0.2000      0.2000      0.2000      0.2000      0.2000      0.2000    
       0.2000      0.2000      0.2000      0.1300      0.1300      0.2000       0.000       0.000       0.000    
  40    0.000       0.000       0.000       0.000       0.000       0.000      0.1300      0.1300      0.1300      0.1300    
       0.1300      0.1300      0.2000      0.2000      0.2000      0.2000      0.2000      0.2000      0.1300      0.1300    
       0.1300      0.1300      0.1400      0.1400      0.1400      0.1400      0.1400      0.1400      0.2000      0.2000    
       0.2000      0.2000      0.2000      0.2000      0.2000      0.2000      0.2000      0.2000      0.1400      0.1400    
       0.1400      0.1400      0.1400      0.2000      0.2000      0.1400      0.1400      0.1400      0.1400      0.2000    
       0.2000      0.2000      0.2000      0.2000      0.2000      0.2000      0.1400      0.1400      0.2000      0.2000    
       0.2000      0.2000      0.2000      0.2000      0.2000      0.2000      0.2000      0.2000      0.2000      0.2000    
       0.2000      0.2000      0.2000      0.2000      0.2000      0.2000       0.000       0.000       0.000    
  41    0.000       0.000       0.000       0.000       0.000      0.1300      0.1300      0.1300      0.1300      0.1300    
       0.1300      0.1300      0.2000      0.2000      0.1300      0.1300      0.1300      0.1300      0.1300      0.1300    
       0.1300      0.1400      0.1400      0.1400      0.1400      0.1400      0.1400      0.1400      0.2000      0.2000    
       0.2000      0.2000      0.2000      0.2000      0.2000      0.2000      0.2000      0.2000      0.1400      0.1400    
       0.1400      0.1400      0.1400      0.2000      0.2000      0.2000      0.1400      0.1400      0.1400      0.2000    
       0.2000      0.2000      0.1300      0.1300      0.1300      0.1300      0.1400      0.1400      0.1400      0.2000    
       0.2000      0.2000      0.1400      0.2000      0.2000      0.2000      0.1400      0.1400      0.2000      0.2000    
       0.2000      0.2000      0.2000      0.2000      0.2000       0.000       0.000       0.000       0.000    
  42    0.000       0.000       0.000       0.000       0.000      0.1300      0.1300      0.1300      0.1300      0.1300    
       0.1300      0.1300      0.1300      0.1300      0.1300      0.1300      0.1300      0.1300      0.1300      0.1400    
       0.1400      0.1400      0.1400      0.2000      0.2000      0.2000      0.2000      0.2000      0.2000      0.2000    
       0.2000      0.2000      0.2000      0.2000      0.2000      0.2000      0.2000      0.2000      0.1400      0.1400    
       0.1400      0.1400      0.1400      0.2000      0.2000      0.2000      0.1400      0.1400      0.1400      0.1400    
       0.1300      0.1300      0.1300      0.1300      0.1300      0.1300      0.1300      0.1400      0.1400      0.2000    
       0.2000      0.2000      0.1400      0.1400      0.1400      0.1400      0.1400      0.1400      0.1400      0.2000    
       0.2000      0.2000      0.2000      0.2000      0.2000       0.000       0.000       0.000       0.000    
  43    0.000       0.000       0.000       0.000       0.000      0.1300      0.1300      0.1300      0.1300      0.1300    
       0.1300      0.1300      0.1300      0.1300      0.1300      0.1300      0.1300      0.1300      0.1300      0.1400    
       0.1400      0.1400      0.2000      0.2000      0.2000      0.2000      0.2000      0.2000      0.2000      0.2000    
       0.2000      0.2000      0.2000      0.2000      0.2000      0.2000      0.2000      0.1400      0.1400      0.1400    
       0.1400      0.1400      0.1400      0.2000      0.2000      0.2000      0.1400      0.1400      0.1400      0.1400    
       0.1300      0.1300      0.1300      0.1300      0.1300      0.1300      0.1300      0.1400      0.1400      0.2000    
       0.2000      0.1400      0.1400      0.1400      0.1400      0.1400      0.1400      0.1400      0.1400      0.2000    
       0.2000      0.2000      0.2000      0.2000      0.2000       0.000       0.000       0.000       0.000    
  44    0.000       0.000       0.000       0.000       0.000      0.1300      0.1300      0.1300      0.1300      0.1300    
       0.1300      0.1300      0.1300      0.1300      0.1300      0.1400      0.1400      0.1400      0.1400      0.2000    
       0.2000      0.2000      0.2000      0.2000      0.2000      0.2000      0.2000      0.2000      0.2000      0.2000    
       0.2000      0.2000      0.2000      0.2000      0.2000      0.2000      0.2000      0.1400      0.1400      0.1400    
       0.1400      0.1400      0.1300      0.1300      0.2000      0.2000      0.1400      0.1400      0.1400      0.1400    
       0.1400      0.1300      0.1300      0.1300      0.1300      0.1300      0.1300      0.1400      0.1400      0.2000    
       0.2000      0.1400      0.1400      0.1400      0.1400      0.1400      0.1400      0.1400      0.1400      0.2000    
       0.2000      0.2000      0.2000      0.2000      0.2000       0.000       0.000       0.000       0.000    
  45    0.000       0.000       0.000      0.1300      0.1300      0.1300      0.1300      0.1300      0.1300      0.1300    
       0.1300      0.1300      0.1300      0.1300      0.2000      0.2000      0.2000      0.2000      0.2000      0.2000    
       0.2000      0.2000      0.2000      0.2000      0.2000      0.2000      0.2000      0.2000      0.2000      0.2000    
       0.2000      0.2000      0.2000      0.2000      0.2000      0.2000      0.2000      0.2000      0.1300      0.1300    
       0.1300      0.1300      0.1300      0.1300      0.2000      0.2000      0.1400      0.1400      0.1300      0.1300    
       0.1300      0.1300      0.1300      0.1300      0.1300      0.1300      0.1300      0.1400      0.1400      0.2000    
       0.2000      0.1400      0.1400      0.1400      0.1400      0.1400      0.1400      0.1400      0.1400      0.2000    
       0.2000      0.2000      0.2000      0.1400      0.1300       0.000       0.000       0.000       0.000    
  46    0.000       0.000       0.000      0.1300      0.1300      0.1300      0.1300      0.1300      0.1300      0.1300    
       0.1300      0.2000      0.2000      0.2000      0.2000      0.2000      0.2000      0.2000      0.2000      0.2000    
       0.2000      0.2000      0.2000      0.2000      0.2000      0.2000      0.2000      0.2000      0.2000      0.2000    
       0.2000      0.2000      0.2000      0.2000      0.2000      0.2000      0.2000      0.1400      0.1300      0.1300    
       0.1300      0.1300      0.1300      0.1300      0.2000      0.2000      0.1400      0.1400      0.1300      0.1300    
       0.1300      0.1300      0.1300      0.1300      0.1300      0.1300      0.1300      0.1400      0.1400      0.2000    
       0.2000      0.1400      0.1400      0.1400      0.1400      0.1400      0.1400      0.1400      0.1400      0.2000    
       0.2000      0.2000      0.2000      0.1400      0.1400       0.000       0.000       0.000       0.000    
  47    0.000       0.000       0.000      0.1300      0.1300      0.1300      0.1300      0.1300      0.1300      0.1300    
       0.1300      0.2000      0.2000      0.2000      0.2000      0.2000      0.2000      0.2000      0.2000      0.2000    
       0.2000      0.2000      0.2000      0.2000      0.2000      0.2000      0.2000      0.2000      0.2000      0.1400    
       0.2000      0.2000      0.2000      0.2000      0.2000      0.2000      0.2000      0.1400      0.1300      0.1300    
       0.1300      0.1300      0.1300      0.1300      0.2000      0.2000      0.1400      0.1400      0.1300      0.1300    
       0.1300      0.1300      0.1300      0.1300      0.1300      0.1300      0.1300      0.1300      0.1400      0.1400    
       0.2000      0.1400      0.1400      0.1400      0.1400      0.1400      0.1400      0.1400      0.1400      0.2000    
       0.2000      0.2000      0.2000      0.1400      0.1400       0.000       0.000       0.000       0.000    
  48    0.000       0.000       0.000      0.1300      0.1300      0.1300      0.1300      0.1300      0.1300      0.1300    
       0.1300      0.2000      0.2000      0.2000      0.2000      0.2000      0.2000      0.2000      0.2000      0.2000    
       0.2000      0.2000      0.2000      0.2000      0.1400      0.1400      0.1400      0.1400      0.1400      0.1400    
       0.2000      0.2000      0.2000      0.2000      0.2000      0.2000      0.2000      0.2000      0.1300      0.1300    
       0.1300      0.1300      0.1300      0.1300      0.2000      0.2000      0.1400      0.1400      0.1400      0.1300    
       0.1300      0.1300      0.1300      0.1300      0.1300      0.1300      0.1300      0.1300      0.1400      0.1400    
       0.2000      0.2000      0.1400      0.1400      0.1400      0.1400      0.1400      0.1400      0.1400      0.2000    
       0.2000      0.2000      0.2000      0.1400      0.1400      0.1400       0.000       0.000       0.000    
  49    0.000       0.000       0.000      0.1300      0.1300      0.1300      0.1300      0.1300      0.1300      0.1300    
       0.2000      0.2000      0.2000      0.2000      0.2000      0.2000      0.2000      0.2000      0.2000      0.1400    
       0.1400      0.1400      0.1400      0.1400      0.1400      0.1400      0.1400      0.1400      0.1400      0.1400    
       0.2000      0.2000      0.2000      0.2000      0.2000      0.2000      0.2000      0.2000      0.2000      0.1300    
       0.1300      0.1300      0.1300      0.1300      0.1300      0.2000      0.2000      0.2000      0.1400      0.1300    
       0.1300      0.1300      0.1300      0.1300      0.1300      0.1300      0.1300      0.1300      0.1400      0.1400    
       0.2000      0.2000      0.1400      0.1400      0.1400      0.1400      0.1400      0.1400      0.1400      0.2000    
       0.2000      0.2000      0.2000      0.1400      0.1400      0.1400       0.000       0.000       0.000    
  50    0.000       0.000       0.000      0.1300      0.1300      0.1300      0.1300      0.1300      0.1300      0.1300    
       0.2000      0.2000      0.2000      0.2000      0.2000      0.1400      0.1400      0.1400      0.1400      0.1400    
       0.1400      0.1400      0.1400      0.1400      0.1400      0.1400      0.1400      0.1400      0.1400      0.1400    
       0.1400      0.2000      0.2000      0.2000      0.2000      0.2000      0.2000      0.2000      0.2000      0.2000    
       0.1300      0.1300      0.1300      0.1300      0.1300      0.1300      0.2000      0.2000      0.2000      0.1300    
       0.1300      0.1300      0.1300      0.1300      0.1300      0.1300      0.1300      0.1300      0.1400      0.1400    
       0.2000      0.2000      0.1400      0.1400      0.1400      0.1400      0.1400      0.1400      0.1400      0.2000    
       0.2000      0.2000      0.2000      0.2000      0.1400      0.1400       0.000       0.000       0.000    
  51    0.000       0.000       0.000      0.1300      0.1300      0.1300      0.1300      0.1300      0.1300      0.2000    
       0.2000      0.2000      0.2000      0.2000      0.2000      0.1300      0.1300      0.1400      0.1400      0.1400    
       0.1400      0.1400      0.1400      0.1400      0.1400      0.1400      0.1400      0.1400      0.1400      0.1400    
       0.1400      0.2000      0.2000      0.2000      0.2000      0.2000      0.2000      0.2000      0.2000      0.2000    
       0.1300      0.1300      0.1300      0.1300      0.1300      0.1300      0.2000      0.2000      0.2000      0.1300    
       0.1300      0.1300      0.1300      0.1300      0.1300      0.1300      0.1300      0.1300      0.1400      0.1400    
       0.2000      0.2000      0.2000      0.1400      0.1400      0.1400      0.1400      0.1400      0.1400      0.2000    
       0.2000      0.2000      0.2000      0.2000      0.1400      0.1400       0.000       0.000       0.000    
  52    0.000       0.000      0.1300      0.1300      0.1300      0.1300      0.1300      0.1300      0.1300      0.2000    
       0.2000      0.2000      0.2000      0.1300      0.1300      0.1300      0.1300      0.1300      0.1300      0.1400    
       0.1400      0.1400      0.1400      0.1400      0.1400      0.1400      0.1400      0.1400      0.1400      0.1400    
       0.1400      0.2000      0.2000      0.2000      0.2000      0.2000      0.2000      0.2000      0.2000      0.2000    
       0.1300      0.1300      0.1300      0.1300      0.1300      0.1300      0.1300      0.2000      0.2000      0.1300    
       0.1300      0.1300      0.1300      0.1300      0.1300      0.1300      0.1300      0.1300      0.1300      0.1400    
       0.2000      0.2000      0.2000      0.1400      0.1400      0.1400      0.1400      0.1400      0.1400      0.2000    
       0.2000      0.2000      0.2000      0.2000      0.1400      0.1400       0.000       0.000       0.000    
  53    0.000       0.000      0.1300      0.1300      0.1300      0.1300      0.1300      0.1300      0.2000      0.2000    
       0.2000      0.2000      0.1300      0.1300      0.1300      0.1300      0.1300      0.1300      0.1300      0.1300    
       0.1300      0.1400      0.1400      0.1400      0.1400      0.1400      0.1400      0.1400      0.1400      0.1400    
       0.1400      0.2000      0.2000      0.2000      0.2000      0.2000      0.2000      0.2000      0.2000      0.1300    
       0.1300      0.1300      0.1300      0.1300      0.1300      0.1300      0.1300      0.2000      0.2000      0.2000    
       0.1300      0.1300      0.1300      0.1300      0.1300      0.1300      0.1300      0.1300      0.1300      0.1400    
       0.2000      0.2000      0.2000      0.1400      0.1400      0.1400      0.1400      0.1400      0.1400      0.2000    
       0.2000      0.2000      0.2000      0.2000      0.1400      0.1400      0.1400       0.000       0.000    
  54    0.000       0.000      0.1300      0.1300      0.1300      0.1300      0.1300      0.1300      0.2000      0.2000    
       0.2000      0.1300      0.1300      0.1300      0.1300      0.1300      0.1300      0.1300      0.1300      0.1300    
       0.1300      0.1400      0.1400      0.1400      0.1400      0.1400      0.1400      0.1400      0.1400      0.1400    
       0.1400      0.2000      0.2000      0.2000      0.2000      0.2000      0.2000      0.2000      0.2000      0.1400    
       0.1300      0.1300      0.1300      0.1300      0.1300      0.1300      0.1300      0.2000      0.2000      0.2000    
       0.1300      0.1300      0.1300      0.1300      0.1300      0.1300      0.1300      0.1300      0.1300      0.1400    
       0.2000      0.2000      0.2000      0.1400      0.1400      0.1400      0.1400      0.1400      0.1400      0.2000    
       0.2000      0.2000      0.2000      0.2000      0.1400      0.1400      0.1400       0.000       0.000    
  55    0.000      0.1300      0.1300      0.1300      0.1300      0.1300      0.1300      0.2000      0.2000      0.2000    
       0.2000      0.1300      0.1300      0.1300      0.1300      0.1300      0.1300      0.1300      0.1300      0.1300    
       0.1300      0.1300      0.1400      0.1400      0.1400      0.1400      0.1400      0.1400      0.1400      0.1400    
       0.1400      0.1400      0.2000      0.2000      0.2000      0.2000      0.2000      0.2000      0.2000      0.1400    
       0.1300      0.1300      0.1300      0.1300      0.1300      0.1300      0.1300      0.2000      0.2000      0.2000    
       0.1300      0.1300      0.1300      0.1300      0.1300      0.1300      0.1300      0.1300      0.1300      0.1400    
       0.2000      0.2000      0.2000      0.1400      0.1400      0.1400      0.1400      0.1400      0.1400      0.2000    
       0.2000      0.2000      0.2000      0.2000      0.2000      0.1400      0.1400       0.000       0.000    
  56    0.000      0.1300      0.1300      0.1300      0.1300      0.1300      0.2000      0.2000      0.2000      0.2000    
       0.2000      0.1300      0.1300      0.1300      0.1300      0.1300      0.1300      0.1300      0.1300      0.1300    
       0.1300      0.1300      0.1300      0.1400      0.1400      0.1400      0.1400      0.1400      0.1400      0.1400    
       0.1400      0.1400      0.2000      0.2000      0.2000      0.2000      0.2000      0.2000      0.2000      0.1400    
       0.1300      0.1300      0.1300      0.1300      0.1300      0.1300      0.1300      0.2000      0.2000      0.2000    
       0.1300      0.1300      0.1300      0.1300      0.1300      0.1300      0.1300      0.1300      0.1300      0.1400    
       0.2000      0.2000      0.2000      0.1400      0.1400      0.1300      0.1300      0.1300      0.1400      0.1400    
       0.2000      0.2000      0.2000      0.2000      0.2000      0.1400      0.1400       0.000       0.000    
  57   0.1300      0.1300      0.1300      0.1300      0.1300      0.2000      0.2000      0.2000      0.2000      0.1300    
       0.1300      0.1300      0.1300      0.1300      0.1300      0.1300      0.1300      0.1300      0.1300      0.1300    
       0.1300      0.1300      0.1300      0.1300      0.1300      0.1300      0.1400      0.1400      0.1400      0.1400    
       0.1400      0.1400      0.2000      0.2000      0.2000      0.2000      0.2000      0.2000      0.1400      0.1400    
       0.1300      0.1300      0.1300      0.1300      0.1300      0.1300      0.1300      0.2000      0.2000      0.2000    
       0.1300      0.1300      0.1300      0.1300      0.1300      0.1300      0.1300      0.1300      0.1300      0.1300    
       0.1400      0.2000      0.2000      0.1400      0.1400      0.1300      0.1300      0.1300      0.1400      0.1400    
       0.2000      0.2000      0.1400      0.1400      0.1400      0.1400      0.1400       0.000       0.000    
  58   0.1300      0.1300      0.1300      0.1300      0.1300      0.2000      0.1300      0.1300      0.1300      0.1300    
       0.1300      0.1300      0.1300      0.1300      0.1300      0.1300      0.1300      0.1300      0.1300      0.1300    
       0.1300      0.1300      0.1300      0.1300      0.1300      0.1300      0.1300      0.1400      0.1400      0.1400    
       0.1400      0.1400      0.2000      0.2000      0.2000      0.2000      0.2000      0.2000      0.1400      0.1400    
       0.1300      0.1300      0.1300      0.1300      0.1300      0.1300      0.1300      0.1300      0.2000      0.2000    
       0.2000      0.1400      0.1300      0.1300      0.1300      0.1300      0.1300      0.1300      0.1300      0.1300    
       0.1400      0.2000      0.1400      0.1400      0.1400      0.1300      0.1300      0.1300      0.1400      0.2000    
       0.2000      0.2000      0.1400      0.1400      0.1400      0.1400      0.1400       0.000       0.000    
  59   0.1300      0.1300      0.1300      0.1300      0.1300      0.1300      0.1300      0.1300      0.1300      0.1300    
       0.1300      0.1300      0.1300      0.1300      0.1300      0.1300      0.1300      0.1300      0.1300      0.1300    
       0.1300      0.1300      0.1300      0.1300      0.1300      0.1300      0.1300      0.1300      0.1400      0.1400    
       0.1400      0.1400      0.2000      0.2000      0.2000      0.2000      0.2000      0.2000      0.2000      0.1400    
       0.1300      0.1300      0.1300      0.1300      0.1300      0.1300      0.1300      0.1300      0.2000      0.1300    
       0.2000      0.1400      0.1300      0.1300      0.1300      0.1300      0.1300      0.1300      0.1300      0.1300    
       0.1400      0.1400      0.1400      0.1300      0.1300      0.1300      0.1300      0.1300      0.1400      0.2000    
       0.2000      0.2000      0.1400      0.1400      0.1400      0.1400      0.1400      0.1400       0.000    
  60    0.000      0.1300      0.1300      0.1300      0.1300      0.1300      0.1300      0.1300      0.1300      0.1300    
       0.1300      0.1300      0.1300       0.000       0.000       0.000      0.1300      0.1300      0.1300      0.1300    
       0.1300      0.1300      0.1300      0.1300      0.1300      0.1300      0.1300      0.1300      0.1300      0.1400    
       0.1400      0.1400      0.1400      0.2000      0.2000      0.2000      0.2000      0.2000      0.2000      0.1400    
       0.1300      0.1300      0.1300      0.1300      0.1300      0.1300      0.1300      0.1300      0.1300      0.1300    
       0.2000      0.1400      0.1300      0.1300      0.1300      0.1300      0.1300      0.1300      0.1300      0.1400    
       0.1400      0.1400      0.1300      0.1300      0.1300      0.1300      0.1300      0.1300      0.1400      0.2000    
       0.2000      0.1400      0.1400      0.1400      0.1400      0.1400      0.1400      0.1400      0.1400    
  61    0.000       0.000      0.1300      0.1300      0.1300      0.1300      0.1300      0.1300      0.1300      0.1300    
       0.1300       0.000       0.000       0.000       0.000       0.000       0.000      0.1300      0.1300      0.1300    
       0.1300      0.1300      0.1300      0.1300      0.1300      0.1300      0.1300      0.1300      0.1300      0.1300    
       0.1400      0.1400      0.1400      0.2000      0.2000      0.2000      0.2000      0.2000      0.2000      0.1400    
       0.1300      0.1300      0.1300      0.1300      0.1300      0.1300      0.1300      0.1300      0.1300      0.1300    
       0.2000      0.2000      0.1300      0.1300      0.1300      0.1300      0.1300      0.1300      0.1300      0.1300    
       0.1300      0.1300      0.1300      0.1300      0.1300      0.1300      0.1300      0.1300      0.1400      0.2000    
       0.2000      0.1400      0.1400      0.1400      0.1400      0.1400      0.1400      0.1400      0.1400    
  62    0.000       0.000       0.000      0.1300       0.000       0.000       0.000       0.000       0.000       0.000    
        0.000       0.000       0.000       0.000       0.000       0.000       0.000       0.000       0.000      0.1300    
       0.1300      0.1300      0.1300      0.1300      0.1300      0.1300      0.1300      0.1300      0.1300      0.1300    
       0.1400      0.1400      0.1400      0.2000      0.2000      0.2000      0.2000      0.2000      0.2000      0.1400    
       0.1300      0.1300      0.1300      0.1300      0.1300      0.1300      0.1300      0.1300      0.1300      0.1300    
       0.1300      0.1300      0.2000      0.1300      0.1300      0.1300      0.1300      0.1300      0.1300      0.1300    
       0.1300      0.1300      0.1300      0.1300      0.1300      0.1300      0.1300      0.1300      0.1400      0.2000    
       0.1400      0.1400      0.1400      0.1400      0.1400      0.1400      0.1400      0.1300      0.1300    
  63    0.000       0.000       0.000       0.000       0.000       0.000       0.000       0.000       0.000       0.000    
        0.000       0.000       0.000       0.000       0.000       0.000       0.000       0.000       0.000      0.1300    
       0.1300      0.1300      0.1300      0.1300      0.1300      0.1300      0.1300      0.1300      0.1300      0.1300    
       0.1300      0.1400      0.1400      0.2000      0.2000      0.2000      0.2000      0.2000      0.2000      0.1400    
       0.1400      0.1300      0.1300      0.1300      0.1300      0.1300      0.1300      0.1300      0.1300      0.1300    
       0.1300      0.1300      0.2000      0.2000      0.1300      0.1300      0.1300      0.1300      0.1300      0.1300    
       0.1300      0.1300      0.1300      0.1300      0.1300      0.1300      0.1300      0.1300      0.1400      0.1400    
       0.1400      0.1400      0.1400      0.1400      0.1400      0.1400      0.1400      0.1300      0.1300    
  64    0.000       0.000       0.000       0.000       0.000       0.000       0.000       0.000       0.000       0.000    
        0.000       0.000       0.000       0.000       0.000       0.000       0.000       0.000       0.000       0.000    
        0.000       0.000       0.000       0.000      0.1300      0.1300      0.1300      0.1300      0.1300      0.1300    
       0.1300      0.1300      0.1400      0.1400      0.2000      0.2000      0.2000      0.2000      0.2000      0.2000    
       0.1300      0.1300      0.1300      0.1300      0.1300      0.1300      0.1300      0.1300      0.1300      0.1300    
       0.1300      0.1300      0.1400      0.2000      0.1300      0.1300      0.1300      0.1300      0.1300      0.1300    
       0.1300      0.1300      0.1300      0.1300      0.1300      0.1300      0.1300      0.1400      0.1400      0.1400    
       0.1400      0.1400      0.1400      0.1400      0.1400      0.1400      0.1300      0.1300      0.1300    
  65    0.000       0.000       0.000       0.000       0.000       0.000       0.000       0.000       0.000       0.000    
        0.000       0.000       0.000       0.000       0.000       0.000       0.000       0.000       0.000       0.000    
        0.000       0.000       0.000       0.000       0.000       0.000       0.000       0.000       0.000       0.000    
        0.000       0.000       0.000      0.1400      0.2000      0.2000      0.2000      0.2000      0.2000      0.2000    
       0.1300      0.1300      0.1300      0.1300      0.1300       0.000       0.000       0.000       0.000      0.1300    
       0.1300      0.1300      0.1400      0.1400      0.1300      0.1300      0.1300      0.1300      0.1300      0.1300    
       0.1300      0.1300      0.1300      0.1300      0.1300      0.1300      0.1300      0.1400      0.1400      0.1400    
       0.1400      0.1400      0.1400      0.1400      0.1400      0.1400      0.1400      0.1300      0.1300    
  66    0.000       0.000       0.000       0.000       0.000       0.000       0.000       0.000       0.000       0.000    
        0.000       0.000       0.000       0.000       0.000       0.000       0.000       0.000       0.000       0.000    
        0.000       0.000       0.000       0.000       0.000       0.000       0.000       0.000       0.000       0.000    
        0.000       0.000       0.000       0.000       0.000      0.1400      0.1400       0.000       0.000       0.000    
        0.000       0.000       0.000       0.000       0.000       0.000       0.000       0.000       0.000       0.000    
       0.1300      0.1300      0.1400      0.1400      0.1400      0.1300      0.1300      0.1300      0.1300      0.1300    
       0.1300      0.1300      0.1300      0.1300      0.1300      0.1300      0.1300      0.1300      0.1400      0.1400    
       0.1400      0.1400      0.1400      0.1400      0.1400      0.1400      0.1400      0.1300      0.1300    
  67    0.000       0.000       0.000       0.000       0.000       0.000       0.000       0.000       0.000       0.000    
        0.000       0.000       0.000       0.000       0.000       0.000       0.000       0.000       0.000       0.000    
        0.000       0.000       0.000       0.000       0.000       0.000       0.000       0.000       0.000       0.000    
        0.000       0.000       0.000       0.000       0.000       0.000       0.000       0.000       0.000       0.000    
        0.000       0.000       0.000       0.000       0.000       0.000       0.000       0.000       0.000       0.000    
        0.000       0.000      0.1300      0.1400      0.1300      0.1300      0.1300      0.1300      0.1300      0.1300    
       0.1300      0.1300      0.1300      0.1300      0.1300      0.1300      0.1300      0.1300      0.1400      0.1400    
       0.1400       0.000       0.000       0.000       0.000       0.000       0.000       0.000       0.000    
  68    0.000       0.000       0.000       0.000       0.000       0.000       0.000       0.000       0.000       0.000    
        0.000       0.000       0.000       0.000       0.000       0.000       0.000       0.000       0.000       0.000    
        0.000       0.000       0.000       0.000       0.000       0.000       0.000       0.000       0.000       0.000    
        0.000       0.000       0.000       0.000       0.000       0.000       0.000       0.000       0.000       0.000    
        0.000       0.000       0.000       0.000       0.000       0.000       0.000       0.000       0.000       0.000    
        0.000       0.000       0.000      0.1300      0.1300      0.1300      0.1300      0.1300      0.1300      0.1300    
       0.1300      0.1300      0.1300      0.1300      0.1300      0.1300      0.1300      0.1400       0.000       0.000    
        0.000       0.000       0.000       0.000       0.000       0.000       0.000       0.000       0.000    
  69    0.000       0.000       0.000       0.000       0.000       0.000       0.000       0.000       0.000       0.000    
        0.000       0.000       0.000       0.000       0.000       0.000       0.000       0.000       0.000       0.000    
        0.000       0.000       0.000       0.000       0.000       0.000       0.000       0.000       0.000       0.000    
        0.000       0.000       0.000       0.000       0.000       0.000       0.000       0.000       0.000       0.000    
        0.000       0.000       0.000       0.000       0.000       0.000       0.000       0.000       0.000       0.000    
        0.000       0.000       0.000       0.000       0.000       0.000       0.000       0.000       0.000       0.000    
       0.1300      0.1300      0.1300      0.1300      0.1400      0.1400      0.1400       0.000       0.000       0.000    
        0.000       0.000       0.000       0.000       0.000       0.000       0.000       0.000       0.000    
  70    0.000       0.000       0.000       0.000       0.000       0.000       0.000       0.000       0.000       0.000    
        0.000       0.000       0.000       0.000       0.000       0.000       0.000       0.000       0.000       0.000    
        0.000       0.000       0.000       0.000       0.000       0.000       0.000       0.000       0.000       0.000    
        0.000       0.000       0.000       0.000       0.000       0.000       0.000       0.000       0.000       0.000    
        0.000       0.000       0.000       0.000       0.000       0.000       0.000       0.000       0.000       0.000    
        0.000       0.000       0.000       0.000       0.000       0.000       0.000       0.000       0.000       0.000    
        0.000      0.1300      0.1300      0.1300      0.1400      0.1400       0.000       0.000       0.000       0.000    
        0.000       0.000       0.000       0.000       0.000       0.000       0.000       0.000       0.000    
  71    0.000       0.000       0.000       0.000       0.000       0.000       0.000       0.000       0.000       0.000    
        0.000       0.000       0.000       0.000       0.000       0.000       0.000       0.000       0.000       0.000    
        0.000       0.000       0.000       0.000       0.000       0.000       0.000       0.000       0.000       0.000    
        0.000       0.000       0.000       0.000       0.000       0.000       0.000       0.000       0.000       0.000    
        0.000       0.000       0.000       0.000       0.000       0.000       0.000       0.000       0.000       0.000    
        0.000       0.000       0.000       0.000       0.000       0.000       0.000       0.000       0.000       0.000    
        0.000       0.000      0.1300      0.1300       0.000       0.000       0.000       0.000       0.000       0.000    
        0.000       0.000       0.000       0.000       0.000       0.000       0.000       0.000       0.000    

UNSATURATED FLOW RESULTS WILL BE PRINTED TO SEPARATE FILES FOR SELECTED MODEL CELLS, AND TIME STEPS AS DEFINED BY OUTPUT CONTROL PACKAGE 

SELECTED MODEL CELLS ARE: 
 ROW NUMBER  COLUMN NUMBER  FORTRAN UNIT NUMBER  OUTPUT OPTION


      38            35                 65                 1
      39            56                 66                 2
      40            66                 67                 3
      38            64                 69                 4
      37            66                 70                 5
      40            74                 71                 6
       0             0                 68                 4

 LAK7 -- LAKE PACKAGE, VERSION 7, 1/07/2013 INPUT READ FROM UNIT 18
 # Sagehen model modified for testing GSFLOW-MODSIM coupling
 # TABLEINPUT
 No named parameters
 Model grid will be used to develop 
 volume and area relationship. 
 SPACE ALLOCATION FOR   8413 GRID CELL FACES ADJACENT TOLAKES
 MAXIMUM NUMBER OF LAKES IS  2 FOR THIS SIMULATION
 CELL-BY-CELL FLOWS WILL BE RECORDED ON UNIT   95


 NEWTON ITERATION METHOD FOR COMPUTING LAKE STAGE DURING STEADY-STATE STRESS PERIODS HAS BEEN MODIFIED:
 SPECIFIED THETA OF  0.750 WILL BE AUTOMATICALLY CHANGED TO 1.0 FOR ALL STEADY STATE STRESS PERIODS.
 MAXIMUM NUMBER OF STEADY-STATE ITERATIONS (NSSITR) =   100
 CLOSURE CRITERIA FOR STEADY-STATE LAKE STAGE (SSCNCR) =  1.000000E-06





  18 GAGING STATIONS WERE SPECIFIED.
     (Lakes are identified by a negative value of the Lake Number)
     RECORDS WILL BE WRITTEN TO SEPARATE OUTPUT FILES REPRESENTED BY FOLLOWING UNIT NUMBERS:

 Stream Gages:
  GAGE #   SEGMENT   REACH   UNIT   OUTTYPE
       1      20       6      72       6
       2      19       1      73       6
       3      22       1      74       6
       4      16       1      75       6
       5      16       2      47       6
       6      17       6      76       6
       7      18       1      77       6
       8       5       1      78       6
       9       9       9      79       6
      10      10      24      82       6
      11      12      25      83       6
      12       6       9      84       6
      13      11       8      85       6
      14      13       4      44       6
      15      21       5      45       6
      16      23       5      46       6
 Lake Gages:
  GAGE #    LAKE     UNIT   OUTTYPE
      17      -1     -96       3
      18      -2     -97       3




1
                            STRESS PERIOD NO.    1, LENGTH =   1.000000    
                            -----------------------------------------------

                              NUMBER OF TIME STEPS =     1

                               MULTIPLIER FOR DELT =     1.000

                            INITIAL TIME STEP SIZE =   1.000000    



 CLASSIFICATION & COUNT OF STREAM SEGMENTS BASED ON SOURCE OF INFLOW:

                HEADWATER     DIVERSION     RECEIVES TRIBUTARY FLOW
                ---------     ---------     -----------------------
                     9              4              10



                    INPUT DATA FOR EACH STREAM SEGMENT
 ---------------------------------------------------------------------------------------------

 SEGMENT    SEG.     INFLOW   OVERLAND   STREAM    STREAM   ICALC  OUTFLOW  DIVERSION PRIORITY
    NO.    LENGTH     RATE     RUNOFF      ET       PPT.    METH.  TO SEG.  FROM SEG.    NO.

      1  5.355E+02 0.000E+00 0.000E+00 0.000E+00 0.000E+00    1        3        0        0
      2  2.809E+02 0.000E+00 0.000E+00 0.000E+00 0.000E+00    1        3        0        0
      3  1.791E+03 0.000E+00 0.000E+00 0.000E+00 0.000E+00    1       15        0        0
      4  1.277E+03 0.000E+00 0.000E+00 0.000E+00 0.000E+00    1       11        0        0
      5  8.428E+02 0.000E+00 0.000E+00 0.000E+00 0.000E+00    1       -1        0        0
      6  8.691E+02 0.000E+00 0.000E+00 0.000E+00 0.000E+00    1       11        0        0
      7  3.073E+02 0.000E+00 0.000E+00 0.000E+00 0.000E+00    1        5        0        0
      8  1.907E+03 0.000E+00 0.000E+00 0.000E+00 0.000E+00    1        6        0        0
      9  8.023E+02 0.000E+00 0.000E+00 0.000E+00 0.000E+00    1        7        0        0
     10  2.413E+03 0.000E+00 0.000E+00 0.000E+00 0.000E+00    1        5        0        0
     11  7.046E+02 0.000E+00 0.000E+00 0.000E+00 0.000E+00    1       13        0        0
     12  2.746E+03 0.000E+00 0.000E+00 0.000E+00 0.000E+00    1        7        0        0
     13  2.700E+02 0.000E+00 0.000E+00 0.000E+00 0.000E+00    1       21        0        0
     14  8.023E+02 0.000E+00 0.000E+00 0.000E+00 0.000E+00    1       13        0        0
     15  4.500E+01 0.000E+00 0.000E+00 0.000E+00 0.000E+00    1       23        0        0
     16  1.350E+02 0.000E+00 0.000E+00 0.000E+00 0.000E+00    1        0        0        0
     17  1.353E+03 0.000E+00 0.000E+00 0.000E+00 0.000E+00    1       -2        0        0
     18  2.436E+02 5.000E+03 0.000E+00 0.000E+00 0.000E+00    1        6       -1        0
     19  1.909E+02 1.000E+03 0.000E+00 0.000E+00 0.000E+00    1       16       -2        0
     20  6.518E+02 0.000E+00 0.000E+00 0.000E+00 0.000E+00    1       -2       13        0
     21  4.423E+02 0.000E+00 0.000E+00 0.000E+00 0.000E+00    1       15        0        0
     22  5.959E+02 0.000E+00 0.000E+00 0.000E+00 0.000E+00    1        0       15        0
     23  4.423E+02 0.000E+00 0.000E+00 0.000E+00 0.000E+00    1       16        0        0


         STREAMBED PROPERTIES AND STREAM DIMENSIONS

 SEGMENT     WIDTH OF STREAM     DEPTH OF STREAM    STREAM ROUGHNESS
    No.     UPPER     LOWER     UPPER     LOWER     CHANNEL      BANK

     1    3.000E+00 3.000E+00                      4.000E-02
     2    3.000E+00 3.000E+00                      4.000E-02
     3    3.000E+00 3.000E+00                      4.000E-02
     4    3.000E+00 3.000E+00                      4.000E-02
     5    3.000E+00 3.000E+00                      4.000E-02
     6    3.000E+00 3.000E+00                      4.000E-02
     7    3.000E+00 3.000E+00                      4.000E-02
     8    3.000E+00 3.000E+00                      4.000E-02
     9    3.000E+00 3.000E+00                      4.000E-02
    10    3.000E+00 3.000E+00                      4.000E-02
    11    3.000E+00 3.000E+00                      4.000E-02
    12    3.000E+00 3.000E+00                      4.000E-02
    13    3.000E+00 3.000E+00                      4.000E-02
    14    3.000E+00 3.000E+00                      4.000E-02
    15    3.000E+00 3.000E+00                      4.000E-02
    16    3.000E+00 3.000E+00                      4.000E-02
    17    3.000E+00 3.000E+00                      4.000E-02
    18    3.000E+00 3.000E+00                      4.000E-02
    19    3.000E+00 3.000E+00                      4.000E-02
    20    1.500E+00 1.500E+00                      4.000E-02
    21    3.000E+00 3.000E+00                      4.000E-02
    22    3.000E+00 3.000E+00                      4.000E-02
    23    3.000E+00 3.000E+00                      4.000E-02






            AREAL INFILTRATION RATE
 READING ON UNIT   14 WITH FORMAT: (FREE)              

            1           2           3           4           5           6           7           8           9          10
           11          12          13          14          15          16          17          18          19          20
           21          22          23          24          25          26          27          28          29          30
           31          32          33          34          35          36          37          38          39          40
           41          42          43          44          45          46          47          48          49          50
           51          52          53          54          55          56          57          58          59          60
           61          62          63          64          65          66          67          68          69          70
           71          72          73          74          75          76          77          78          79
 ........................................................................................................................
   1    0.000       0.000       0.000       0.000       0.000       0.000       0.000       0.000       0.000       0.000    
        0.000       0.000       0.000       0.000       0.000       0.000       0.000       0.000       0.000       0.000    
        0.000       0.000       0.000       0.000       0.000       0.000       0.000       0.000       0.000       0.000    
        0.000       0.000       0.000       0.000       0.000       0.000       0.000       0.000       0.000       0.000    
        0.000       0.000       0.000       0.000       0.000       0.000       0.000       0.000       0.000       0.000    
        0.000      8.8000E-04  8.8000E-04   0.000       0.000       0.000       0.000       0.000       0.000       0.000    
        0.000       0.000       0.000       0.000       0.000       0.000       0.000       0.000       0.000       0.000    
        0.000       0.000       0.000       0.000       0.000       0.000       0.000       0.000       0.000    
   2    0.000       0.000       0.000       0.000       0.000       0.000       0.000       0.000       0.000       0.000    
        0.000       0.000       0.000       0.000       0.000       0.000       0.000       0.000       0.000       0.000    
        0.000       0.000       0.000       0.000       0.000       0.000       0.000       0.000       0.000       0.000    
        0.000       0.000       0.000       0.000       0.000       0.000       0.000       0.000       0.000       0.000    
        0.000       0.000       0.000       0.000       0.000       0.000       0.000       0.000       0.000       0.000    
        0.000      9.6000E-04  8.8000E-04  8.0000E-04   0.000       0.000       0.000       0.000       0.000       0.000    
        0.000       0.000       0.000       0.000       0.000       0.000       0.000       0.000       0.000       0.000    
        0.000       0.000       0.000       0.000       0.000       0.000       0.000       0.000       0.000    
   3    0.000       0.000       0.000       0.000       0.000       0.000       0.000       0.000       0.000       0.000    
        0.000       0.000       0.000       0.000       0.000       0.000       0.000       0.000       0.000       0.000    
        0.000       0.000       0.000       0.000       0.000       0.000       0.000       0.000       0.000       0.000    
        0.000       0.000       0.000       0.000       0.000       0.000       0.000       0.000       0.000       0.000    
        0.000       0.000       0.000       0.000       0.000       0.000       0.000       0.000       0.000       0.000    
        0.000      9.6000E-04  8.8000E-04  8.0000E-04   0.000       0.000       0.000       0.000       0.000       0.000    
        0.000       0.000       0.000       0.000       0.000       0.000       0.000       0.000       0.000       0.000    
        0.000       0.000       0.000       0.000       0.000       0.000       0.000       0.000       0.000    
   4    0.000       0.000       0.000       0.000       0.000       0.000       0.000       0.000       0.000       0.000    
        0.000       0.000       0.000       0.000       0.000       0.000       0.000       0.000       0.000       0.000    
        0.000       0.000       0.000       0.000       0.000       0.000       0.000       0.000       0.000       0.000    
        0.000       0.000       0.000       0.000       0.000       0.000       0.000       0.000       0.000       0.000    
        0.000       0.000       0.000       0.000       0.000       0.000       0.000       0.000       0.000       0.000    
        0.000      8.8000E-04  8.0000E-04  8.0000E-04  8.0000E-04   0.000       0.000       0.000       0.000       0.000    
        0.000       0.000       0.000       0.000       0.000       0.000       0.000       0.000       0.000       0.000    
        0.000       0.000       0.000       0.000       0.000       0.000       0.000       0.000       0.000    
   5    0.000       0.000       0.000       0.000       0.000       0.000       0.000       0.000       0.000       0.000    
        0.000       0.000       0.000       0.000       0.000       0.000       0.000       0.000       0.000       0.000    
        0.000       0.000       0.000       0.000       0.000       0.000       0.000       0.000       0.000       0.000    
        0.000       0.000       0.000       0.000       0.000       0.000       0.000       0.000       0.000       0.000    
        0.000       0.000       0.000       0.000       0.000       0.000       0.000       0.000       0.000       0.000    
        0.000      8.8000E-04  8.0000E-04  8.0000E-04  8.0000E-04  8.0000E-04  8.0000E-04   0.000       0.000       0.000    
        0.000       0.000       0.000       0.000       0.000       0.000       0.000       0.000       0.000       0.000    
        0.000       0.000       0.000       0.000       0.000       0.000       0.000       0.000       0.000    
   6    0.000       0.000       0.000       0.000       0.000       0.000       0.000       0.000       0.000       0.000    
        0.000       0.000       0.000       0.000       0.000       0.000       0.000       0.000       0.000       0.000    
        0.000       0.000       0.000       0.000       0.000       0.000       0.000       0.000       0.000       0.000    
        0.000       0.000       0.000       0.000       0.000       0.000       0.000       0.000       0.000       0.000    
        0.000       0.000       0.000       0.000       0.000       0.000       0.000       0.000       0.000       0.000    
        0.000      8.8000E-04  8.0000E-04  8.0000E-04  8.0000E-04  8.0000E-04  8.0000E-04  8.0000E-04  8.0000E-04   0.000    
        0.000       0.000       0.000      8.0000E-04  8.0000E-04   0.000       0.000       0.000       0.000       0.000    
        0.000       0.000       0.000       0.000       0.000       0.000       0.000       0.000       0.000    
   7    0.000       0.000       0.000       0.000       0.000       0.000       0.000       0.000       0.000       0.000    
        0.000       0.000       0.000       0.000       0.000       0.000       0.000       0.000       0.000       0.000    
        0.000       0.000       0.000       0.000       0.000       0.000       0.000       0.000       0.000       0.000    
        0.000       0.000       0.000       0.000       0.000       0.000       0.000       0.000       0.000       0.000    
        0.000       0.000       0.000       0.000       0.000       0.000       0.000       0.000       0.000       0.000    
        0.000      8.8000E-04  8.0000E-04  8.0000E-04  8.0000E-04  8.0000E-04  8.0000E-04  8.0000E-04  8.0000E-04  8.0000E-04
       8.0000E-04  8.0000E-04  8.0000E-04  8.0000E-04  8.0000E-04  8.0000E-04   0.000       0.000       0.000       0.000    
        0.000       0.000       0.000       0.000       0.000       0.000       0.000       0.000       0.000    
   8    0.000       0.000       0.000       0.000       0.000       0.000       0.000       0.000       0.000       0.000    
        0.000       0.000       0.000       0.000       0.000       0.000       0.000       0.000       0.000       0.000    
        0.000       0.000       0.000       0.000       0.000       0.000       0.000       0.000       0.000       0.000    
        0.000       0.000       0.000       0.000       0.000       0.000       0.000       0.000       0.000       0.000    
        0.000       0.000       0.000       0.000       0.000       0.000       0.000       0.000       0.000       0.000    
        0.000      8.8000E-04  8.0000E-04  8.0000E-04  8.0000E-04  8.0000E-04  8.0000E-04  8.0000E-04  8.0000E-04  8.0000E-04
       8.0000E-04  8.0000E-04  8.0000E-04  8.0000E-04  8.0000E-04  8.0000E-04  8.0000E-04  8.0000E-04   0.000       0.000    
        0.000       0.000       0.000       0.000       0.000       0.000       0.000       0.000       0.000    
   9    0.000       0.000       0.000       0.000       0.000       0.000       0.000       0.000       0.000       0.000    
        0.000       0.000       0.000       0.000       0.000       0.000       0.000       0.000       0.000       0.000    
        0.000       0.000       0.000       0.000       0.000       0.000       0.000       0.000       0.000       0.000    
        0.000       0.000       0.000       0.000       0.000       0.000       0.000       0.000       0.000       0.000    
        0.000       0.000       0.000       0.000       0.000       0.000       0.000       0.000       0.000       0.000    
       8.8000E-04  8.8000E-04  8.0000E-04  8.0000E-04  8.0000E-04  8.0000E-04  8.0000E-04  8.0000E-04  8.0000E-04  8.0000E-04
       8.0000E-04  8.0000E-04  8.0000E-04  8.0000E-04  8.0000E-04  8.0000E-04  8.0000E-04  8.0000E-04  8.0000E-04   0.000    
        0.000       0.000       0.000       0.000       0.000       0.000       0.000       0.000       0.000    
  10    0.000       0.000       0.000       0.000       0.000       0.000       0.000       0.000       0.000       0.000    
        0.000       0.000       0.000       0.000       0.000       0.000       0.000       0.000       0.000       0.000    
        0.000       0.000       0.000       0.000       0.000       0.000       0.000       0.000       0.000       0.000    
        0.000       0.000       0.000       0.000       0.000       0.000       0.000       0.000       0.000       0.000    
        0.000       0.000       0.000       0.000       0.000       0.000       0.000       0.000       0.000      8.8000E-04
       8.8000E-04  8.8000E-04  8.0000E-04  8.0000E-04  8.0000E-04  8.0000E-04  8.0000E-04  8.0000E-04  8.0000E-04  8.0000E-04
       8.0000E-04  8.0000E-04  8.0000E-04  8.0000E-04  8.0000E-04  8.0000E-04  8.0000E-04  8.0000E-04  8.0000E-04  8.0000E-04
        0.000       0.000       0.000       0.000       0.000       0.000       0.000       0.000       0.000    
  11    0.000       0.000       0.000       0.000       0.000       0.000       0.000       0.000       0.000       0.000    
        0.000       0.000       0.000       0.000       0.000       0.000       0.000       0.000       0.000       0.000    
        0.000       0.000       0.000       0.000       0.000       0.000       0.000       0.000       0.000       0.000    
        0.000       0.000       0.000       0.000       0.000       0.000       0.000       0.000       0.000       0.000    
        0.000       0.000       0.000       0.000       0.000       0.000       0.000       0.000      8.8000E-04  8.8000E-04
       8.8000E-04  8.8000E-04  8.0000E-04  8.0000E-04  8.0000E-04  8.0000E-04  8.0000E-04  8.0000E-04  8.0000E-04  8.0000E-04
       8.0000E-04  8.0000E-04  8.0000E-04  8.0000E-04  8.0000E-04  8.0000E-04  8.0000E-04  8.0000E-04  8.0000E-04  8.0000E-04
       8.0000E-04   0.000       0.000       0.000       0.000       0.000       0.000       0.000       0.000    
  12    0.000       0.000       0.000       0.000       0.000       0.000       0.000       0.000       0.000       0.000    
        0.000       0.000       0.000       0.000       0.000       0.000       0.000       0.000       0.000       0.000    
        0.000       0.000       0.000       0.000       0.000       0.000       0.000       0.000       0.000       0.000    
        0.000       0.000       0.000       0.000       0.000       0.000       0.000       0.000       0.000       0.000    
        0.000      9.6000E-04  9.6000E-04   0.000       0.000       0.000       0.000      8.8000E-04  8.8000E-04  8.8000E-04
       8.8000E-04  8.0000E-04  8.0000E-04  8.0000E-04  8.0000E-04  8.0000E-04  8.0000E-04  8.0000E-04  8.0000E-04  8.0000E-04
       8.0000E-04  8.0000E-04  8.0000E-04  8.0000E-04  8.0000E-04  8.0000E-04  8.0000E-04  8.0000E-04  8.0000E-04  8.0000E-04
       8.0000E-04   0.000       0.000       0.000       0.000       0.000       0.000       0.000       0.000    
  13    0.000       0.000       0.000       0.000       0.000       0.000       0.000       0.000       0.000       0.000    
        0.000       0.000       0.000       0.000       0.000       0.000       0.000       0.000       0.000       0.000    
        0.000       0.000       0.000       0.000       0.000       0.000       0.000       0.000       0.000       0.000    
        0.000       0.000       0.000       0.000       0.000       0.000       0.000       0.000      9.6000E-04  9.6000E-04
       9.6000E-04  9.6000E-04  9.6000E-04  9.6000E-04  8.8000E-04  8.8000E-04  8.8000E-04  8.8000E-04  8.8000E-04  8.8000E-04
       8.0000E-04  8.0000E-04  8.0000E-04  8.0000E-04  8.0000E-04  8.0000E-04  8.0000E-04  8.0000E-04  8.0000E-04  8.0000E-04
       8.0000E-04  8.0000E-04  8.0000E-04  8.0000E-04  8.0000E-04  8.0000E-04  8.0000E-04  8.0000E-04  8.0000E-04  8.0000E-04
       8.0000E-04  8.0000E-04   0.000       0.000       0.000       0.000       0.000       0.000       0.000    
  14    0.000       0.000       0.000       0.000       0.000       0.000       0.000       0.000       0.000       0.000    
        0.000       0.000       0.000       0.000       0.000       0.000       0.000       0.000       0.000       0.000    
        0.000       0.000       0.000       0.000       0.000       0.000       0.000       0.000       0.000       0.000    
        0.000       0.000       0.000       0.000       0.000       0.000       0.000       0.000      9.6000E-04  9.6000E-04
       9.6000E-04  9.6000E-04  9.6000E-04  8.8000E-04  8.8000E-04  8.8000E-04  8.8000E-04  8.8000E-04  8.8000E-04  8.0000E-04
       8.0000E-04  8.0000E-04  8.0000E-04  8.0000E-04  8.0000E-04  8.0000E-04  8.0000E-04  8.0000E-04  8.0000E-04  8.0000E-04
       8.0000E-04  8.0000E-04  8.0000E-04  8.0000E-04  8.0000E-04  8.0000E-04  8.0000E-04  8.0000E-04  8.0000E-04  8.0000E-04
       8.0000E-04  8.0000E-04  8.0000E-04   0.000       0.000       0.000       0.000       0.000       0.000    
  15    0.000       0.000       0.000       0.000       0.000       0.000       0.000       0.000       0.000       0.000    
        0.000       0.000       0.000       0.000       0.000       0.000       0.000       0.000       0.000       0.000    
        0.000       0.000       0.000       0.000       0.000       0.000       0.000       0.000       0.000       0.000    
        0.000       0.000       0.000       0.000       0.000       0.000       0.000      9.6000E-04  9.6000E-04  9.6000E-04
       8.8000E-04  8.8000E-04  8.8000E-04  8.8000E-04  8.8000E-04  8.8000E-04  8.8000E-04  8.8000E-04  8.8000E-04  8.0000E-04
       8.0000E-04  8.0000E-04  8.0000E-04  8.0000E-04  8.0000E-04  8.0000E-04  8.0000E-04  8.0000E-04  8.0000E-04  8.0000E-04
       8.0000E-04  8.0000E-04  8.0000E-04  8.0000E-04  8.0000E-04  8.0000E-04  8.0000E-04  8.0000E-04  8.0000E-04  8.0000E-04
       8.0000E-04  8.0000E-04  8.0000E-04   0.000       0.000       0.000       0.000       0.000       0.000    
  16    0.000       0.000       0.000       0.000       0.000       0.000       0.000       0.000       0.000       0.000    
        0.000       0.000       0.000       0.000       0.000       0.000       0.000       0.000       0.000       0.000    
        0.000       0.000       0.000       0.000       0.000       0.000       0.000       0.000       0.000       0.000    
        0.000       0.000       0.000       0.000       0.000       0.000      1.0400E-03  9.6000E-04  9.6000E-04  9.6000E-04
       9.6000E-04  8.8000E-04  8.8000E-04  8.8000E-04  8.0000E-04  8.0000E-04  8.8000E-04  8.8000E-04  8.8000E-04  8.0000E-04
       8.0000E-04  8.0000E-04  8.0000E-04  8.0000E-04  8.0000E-04  8.0000E-04  8.0000E-04  8.0000E-04  8.0000E-04  8.0000E-04
       8.0000E-04  8.0000E-04  8.0000E-04  8.0000E-04  8.0000E-04  8.0000E-04  8.0000E-04  8.0000E-04  8.0000E-04  8.0000E-04
       8.0000E-04  8.0000E-04  8.0000E-04  8.0000E-04   0.000       0.000       0.000       0.000       0.000    
  17    0.000       0.000       0.000       0.000       0.000       0.000       0.000       0.000       0.000       0.000    
        0.000       0.000       0.000       0.000       0.000       0.000       0.000       0.000       0.000       0.000    
        0.000       0.000       0.000       0.000       0.000       0.000       0.000       0.000       0.000       0.000    
        0.000       0.000       0.000       0.000       0.000      1.0400E-03  1.0400E-03  1.0400E-03  9.6000E-04  9.6000E-04
       8.8000E-04  8.8000E-04  8.8000E-04  8.8000E-04  8.0000E-04  8.0000E-04  8.0000E-04  8.0000E-04  8.0000E-04  8.0000E-04
       8.0000E-04  8.0000E-04  8.0000E-04  8.0000E-04  8.0000E-04  8.0000E-04  8.0000E-04  8.0000E-04  8.0000E-04  8.0000E-04
       8.0000E-04  8.0000E-04  8.0000E-04  8.0000E-04  8.0000E-04  8.0000E-04  8.0000E-04  8.0000E-04  8.0000E-04  8.0000E-04
       8.0000E-04  8.0000E-04  8.0000E-04  8.0000E-04   0.000       0.000       0.000       0.000       0.000    
  18    0.000       0.000       0.000       0.000       0.000       0.000       0.000       0.000       0.000       0.000    
        0.000       0.000       0.000       0.000       0.000       0.000       0.000       0.000       0.000       0.000    
        0.000       0.000       0.000       0.000       0.000       0.000       0.000       0.000       0.000       0.000    
        0.000       0.000       0.000       0.000      1.0400E-03  1.0400E-03  1.0400E-03  9.6000E-04  9.6000E-04  9.6000E-04
       8.8000E-04  8.8000E-04  8.8000E-04  8.8000E-04  8.0000E-04  8.0000E-04  8.0000E-04  8.0000E-04  8.0000E-04  8.0000E-04
       8.0000E-04  8.0000E-04  8.0000E-04  8.0000E-04  8.0000E-04  8.0000E-04  8.0000E-04  8.0000E-04  8.0000E-04  8.0000E-04
       8.0000E-04  8.0000E-04  8.0000E-04  8.0000E-04  8.0000E-04  8.0000E-04  8.0000E-04  8.0000E-04  8.0000E-04  8.0000E-04
       8.0000E-04  8.0000E-04  8.0000E-04  8.0000E-04   0.000       0.000       0.000       0.000       0.000    
  19    0.000       0.000       0.000       0.000       0.000       0.000       0.000       0.000       0.000       0.000    
        0.000       0.000       0.000       0.000       0.000       0.000       0.000       0.000       0.000       0.000    
        0.000       0.000       0.000       0.000       0.000       0.000       0.000       0.000       0.000       0.000    
        0.000       0.000       0.000      1.0400E-03  1.0400E-03  1.0400E-03  9.6000E-04  9.6000E-04  9.6000E-04  8.8000E-04
       8.8000E-04  8.8000E-04  8.8000E-04  8.0000E-04  8.0000E-04  8.0000E-04  8.0000E-04  8.0000E-04  8.0000E-04  8.0000E-04
       8.0000E-04  8.0000E-04  8.0000E-04  8.0000E-04  8.0000E-04  8.0000E-04  8.0000E-04  8.0000E-04  8.0000E-04  8.0000E-04
       8.0000E-04  8.0000E-04  8.0000E-04  8.0000E-04  8.0000E-04  8.0000E-04  8.0000E-04  8.0000E-04  8.0000E-04  8.0000E-04
       8.0000E-04  8.0000E-04  8.0000E-04  8.0000E-04   0.000       0.000       0.000       0.000       0.000    
  20    0.000       0.000       0.000       0.000       0.000       0.000       0.000       0.000       0.000       0.000    
        0.000       0.000       0.000       0.000       0.000       0.000       0.000       0.000       0.000       0.000    
        0.000       0.000       0.000       0.000       0.000       0.000       0.000       0.000       0.000       0.000    
        0.000       0.000       0.000      1.0400E-03  1.0400E-03  1.0400E-03  1.0400E-03  9.6000E-04  9.6000E-04  8.8000E-04
       8.8000E-04  8.8000E-04  8.8000E-04  8.0000E-04  8.0000E-04  8.0000E-04  8.0000E-04  8.0000E-04  8.0000E-04  8.0000E-04
       8.0000E-04  8.0000E-04  8.0000E-04  8.0000E-04  8.0000E-04  8.0000E-04  8.0000E-04  8.0000E-04  8.0000E-04  8.0000E-04
       8.0000E-04  8.0000E-04  8.0000E-04  8.0000E-04  8.0000E-04  8.0000E-04  8.0000E-04  8.0000E-04  8.0000E-04  8.0000E-04
       8.0000E-04  8.0000E-04  8.0000E-04  8.0000E-04   0.000       0.000       0.000       0.000       0.000    
  21    0.000       0.000       0.000       0.000       0.000       0.000       0.000       0.000       0.000       0.000    
        0.000       0.000       0.000       0.000       0.000       0.000       0.000       0.000       0.000       0.000    
        0.000       0.000       0.000       0.000       0.000       0.000       0.000       0.000       0.000       0.000    
        0.000       0.000      1.1200E-03  1.1200E-03  1.1200E-03  1.1200E-03  1.0400E-03  1.0400E-03  9.6000E-04  9.6000E-04
       8.8000E-04  8.8000E-04  8.8000E-04  8.8000E-04  8.0000E-04  8.0000E-04  8.0000E-04  8.0000E-04  8.0000E-04  8.0000E-04
       8.0000E-04  8.0000E-04  8.0000E-04  8.0000E-04  8.0000E-04  8.0000E-04  8.0000E-04  8.0000E-04  8.0000E-04  8.0000E-04
       8.0000E-04  8.0000E-04  8.0000E-04  8.0000E-04  8.0000E-04  8.0000E-04  8.0000E-04  8.0000E-04  8.0000E-04  8.0000E-04
       8.0000E-04  8.0000E-04  8.0000E-04  8.0000E-04  8.0000E-04   0.000       0.000       0.000       0.000    
  22    0.000       0.000       0.000       0.000       0.000       0.000       0.000       0.000       0.000       0.000    
        0.000       0.000       0.000       0.000       0.000       0.000       0.000       0.000       0.000       0.000    
        0.000       0.000       0.000       0.000       0.000       0.000       0.000       0.000       0.000       0.000    
        0.000       0.000      1.1200E-03  1.1200E-03  1.1200E-03  1.1200E-03  1.0400E-03  9.6000E-04  9.6000E-04  9.6000E-04
       8.8000E-04  8.8000E-04  8.0000E-04  8.0000E-04  8.0000E-04  8.0000E-04  8.0000E-04  8.0000E-04  8.0000E-04  8.0000E-04
       8.0000E-04  8.0000E-04  8.0000E-04  8.0000E-04  8.0000E-04  8.0000E-04  8.0000E-04  8.0000E-04  8.0000E-04  8.0000E-04
       8.0000E-04  8.0000E-04  8.0000E-04  8.0000E-04  8.0000E-04  8.0000E-04  8.0000E-04  8.0000E-04  8.0000E-04  8.0000E-04
       8.0000E-04  8.0000E-04  8.0000E-04  8.0000E-04   0.000       0.000       0.000       0.000       0.000    
  23    0.000       0.000       0.000       0.000       0.000       0.000       0.000       0.000       0.000       0.000    
        0.000       0.000       0.000       0.000       0.000       0.000       0.000       0.000       0.000       0.000    
        0.000       0.000       0.000       0.000       0.000       0.000       0.000       0.000       0.000       0.000    
        0.000      1.1200E-03  1.2000E-03  1.1200E-03  1.1200E-03  1.0400E-03  9.6000E-04  9.6000E-04  9.6000E-04  8.8000E-04
       8.8000E-04  8.0000E-04  8.0000E-04  8.0000E-04  8.0000E-04  8.0000E-04  8.0000E-04  8.0000E-04  8.0000E-04  8.0000E-04
       8.0000E-04  8.0000E-04  8.0000E-04  8.0000E-04  8.0000E-04  8.0000E-04  8.0000E-04  8.0000E-04  8.0000E-04  8.0000E-04
       8.0000E-04  8.0000E-04  8.0000E-04  8.0000E-04  8.0000E-04  8.0000E-04  8.0000E-04  8.0000E-04  8.0000E-04  8.0000E-04
       8.0000E-04   0.000       0.000       0.000       0.000       0.000       0.000       0.000       0.000    
  24    0.000       0.000       0.000       0.000       0.000       0.000       0.000       0.000       0.000       0.000    
        0.000       0.000       0.000       0.000       0.000       0.000       0.000       0.000       0.000       0.000    
        0.000       0.000       0.000       0.000       0.000       0.000       0.000       0.000      1.2000E-03  1.2000E-03
       1.2000E-03  1.1200E-03  1.1200E-03  1.1200E-03  1.0400E-03  1.0400E-03  9.6000E-04  8.8000E-04  8.8000E-04  8.8000E-04
       8.0000E-04  8.0000E-04  8.0000E-04  8.0000E-04  8.0000E-04  8.0000E-04  8.0000E-04  8.0000E-04  8.0000E-04  8.0000E-04
       8.0000E-04  8.0000E-04  8.0000E-04  8.0000E-04  8.0000E-04  8.0000E-04  8.0000E-04  8.0000E-04  8.0000E-04  8.0000E-04
       8.0000E-04  8.0000E-04  8.0000E-04  8.0000E-04  8.0000E-04  8.0000E-04  8.0000E-04  8.0000E-04  8.0000E-04  8.0000E-04
       8.0000E-04   0.000       0.000       0.000       0.000       0.000       0.000       0.000       0.000    
  25    0.000       0.000       0.000       0.000       0.000       0.000       0.000       0.000       0.000       0.000    
        0.000       0.000       0.000       0.000       0.000       0.000       0.000       0.000       0.000       0.000    
        0.000       0.000       0.000       0.000       0.000       0.000       0.000      1.2000E-03  1.2000E-03  1.2000E-03
       1.2000E-03  1.1200E-03  1.0400E-03  1.0400E-03  9.6000E-04  9.6000E-04  8.8000E-04  8.8000E-04  8.0000E-04  8.0000E-04
       8.0000E-04  8.0000E-04  8.0000E-04  8.0000E-04  8.0000E-04  8.0000E-04  8.0000E-04  8.0000E-04  8.0000E-04  8.0000E-04
       8.0000E-04  8.0000E-04  8.0000E-04  8.0000E-04  8.0000E-04  8.0000E-04  8.0000E-04  8.0000E-04  8.0000E-04  8.0000E-04
       8.0000E-04  8.0000E-04  8.0000E-04  8.0000E-04  8.0000E-04  8.0000E-04  8.0000E-04  8.0000E-04  8.0000E-04  8.0000E-04
       8.0000E-04   0.000       0.000       0.000       0.000       0.000       0.000       0.000       0.000    
  26    0.000       0.000       0.000       0.000       0.000       0.000       0.000       0.000       0.000       0.000    
        0.000       0.000       0.000       0.000       0.000       0.000       0.000       0.000       0.000       0.000    
        0.000       0.000       0.000       0.000       0.000      1.2000E-03  1.2000E-03  1.1200E-03  1.1200E-03  1.1200E-03
       1.1200E-03  1.0400E-03  1.0400E-03  9.6000E-04  9.6000E-04  8.8000E-04  8.8000E-04  8.0000E-04  8.0000E-04  8.0000E-04
       8.0000E-04  8.0000E-04  8.0000E-04  8.0000E-04  8.0000E-04  8.0000E-04  8.0000E-04  8.0000E-04  8.0000E-04  8.0000E-04
       8.0000E-04  8.0000E-04  8.0000E-04  8.0000E-04  8.0000E-04  8.0000E-04  8.0000E-04  8.0000E-04  8.0000E-04  8.0000E-04
       8.0000E-04  8.0000E-04  8.0000E-04  8.0000E-04  8.0000E-04  8.0000E-04  8.0000E-04  8.0000E-04  8.0000E-04  8.0000E-04
       8.0000E-04   0.000       0.000       0.000       0.000       0.000       0.000       0.000       0.000    
  27    0.000       0.000       0.000       0.000       0.000       0.000       0.000       0.000       0.000       0.000    
        0.000       0.000       0.000       0.000       0.000       0.000       0.000       0.000       0.000       0.000    
        0.000       0.000       0.000       0.000      1.2800E-03  1.2000E-03  1.1200E-03  1.1200E-03  1.0400E-03  1.0400E-03
       1.0400E-03  9.6000E-04  9.6000E-04  9.6000E-04  8.8000E-04  8.8000E-04  8.0000E-04  8.0000E-04  8.0000E-04  8.0000E-04
       8.0000E-04  8.0000E-04  8.0000E-04  8.0000E-04  8.0000E-04  8.0000E-04  8.0000E-04  8.0000E-04  8.0000E-04  8.0000E-04
       8.0000E-04  8.0000E-04  8.0000E-04  8.0000E-04  8.0000E-04  8.0000E-04  8.0000E-04  8.0000E-04  8.0000E-04  8.0000E-04
       8.0000E-04  8.0000E-04  8.0000E-04  8.0000E-04  8.0000E-04  8.0000E-04  8.0000E-04  8.0000E-04  8.0000E-04  8.0000E-04
       8.0000E-04   0.000       0.000       0.000       0.000       0.000       0.000       0.000       0.000    
  28    0.000       0.000       0.000       0.000       0.000       0.000       0.000       0.000       0.000       0.000    
        0.000       0.000       0.000       0.000       0.000       0.000       0.000       0.000       0.000       0.000    
        0.000       0.000       0.000      1.2800E-03  1.2800E-03  1.2000E-03  1.1200E-03  1.0400E-03  9.6000E-04  9.6000E-04
       9.6000E-04  8.8000E-04  8.8000E-04  8.8000E-04  8.8000E-04  8.0000E-04  8.0000E-04  8.0000E-04  8.0000E-04  8.0000E-04
       8.0000E-04  8.0000E-04  8.0000E-04  8.0000E-04  8.0000E-04  8.0000E-04  8.0000E-04  8.0000E-04  8.0000E-04  8.0000E-04
       8.0000E-04  8.0000E-04  8.0000E-04  8.0000E-04  8.0000E-04  8.0000E-04  8.0000E-04  8.0000E-04  8.0000E-04  8.0000E-04
       8.0000E-04  8.0000E-04  8.0000E-04  8.0000E-04  8.0000E-04  8.0000E-04  8.0000E-04  8.0000E-04  8.0000E-04  8.0000E-04
       8.0000E-04  8.0000E-04   0.000       0.000       0.000       0.000       0.000       0.000       0.000    
  29    0.000       0.000       0.000       0.000       0.000       0.000       0.000       0.000       0.000       0.000    
        0.000       0.000       0.000       0.000       0.000       0.000       0.000       0.000       0.000       0.000    
        0.000      1.2800E-03  1.2800E-03  1.2000E-03  1.1200E-03  1.1200E-03  1.0400E-03  9.6000E-04  9.6000E-04  8.8000E-04
       8.8000E-04  8.8000E-04  8.8000E-04  8.0000E-04  8.0000E-04  8.0000E-04  8.0000E-04  8.0000E-04  8.0000E-04  8.0000E-04
       8.0000E-04  8.0000E-04  8.0000E-04  8.0000E-04  8.0000E-04  8.0000E-04  8.0000E-04  8.0000E-04  8.0000E-04  8.0000E-04
       8.0000E-04  8.0000E-04  8.0000E-04  8.0000E-04  8.0000E-04  8.0000E-04  8.0000E-04  8.0000E-04  8.0000E-04  8.0000E-04
       8.0000E-04  8.0000E-04  8.0000E-04  8.0000E-04  8.0000E-04  8.0000E-04  8.0000E-04  8.0000E-04  8.0000E-04  8.0000E-04
       8.0000E-04  8.0000E-04   0.000       0.000       0.000       0.000       0.000       0.000       0.000    
  30    0.000       0.000       0.000       0.000       0.000       0.000       0.000       0.000       0.000       0.000    
        0.000       0.000       0.000       0.000       0.000       0.000       0.000       0.000       0.000      1.3600E-03
       1.2800E-03  1.2800E-03  1.2000E-03  1.1200E-03  1.0400E-03  1.0400E-03  1.0400E-03  9.6000E-04  8.8000E-04  8.8000E-04
       8.8000E-04  8.0000E-04  8.0000E-04  8.0000E-04  8.0000E-04  8.0000E-04  8.0000E-04  8.0000E-04  8.0000E-04  8.0000E-04
       8.0000E-04  8.0000E-04  8.0000E-04  8.0000E-04  8.0000E-04  8.0000E-04  8.0000E-04  8.0000E-04  8.0000E-04  8.0000E-04
       8.0000E-04  8.0000E-04  8.0000E-04  8.0000E-04  8.0000E-04  8.0000E-04  8.0000E-04  8.0000E-04  8.0000E-04  8.0000E-04
       8.0000E-04  8.0000E-04  8.0000E-04  8.0000E-04  8.0000E-04  8.0000E-04  8.0000E-04  8.0000E-04  8.0000E-04  8.0000E-04
       8.0000E-04  8.0000E-04   0.000       0.000       0.000       0.000       0.000       0.000       0.000    
  31    0.000       0.000       0.000       0.000       0.000       0.000       0.000       0.000       0.000       0.000    
        0.000       0.000       0.000       0.000       0.000       0.000       0.000       0.000      1.3600E-03  1.3600E-03
       1.2800E-03  1.2000E-03  1.1200E-03  1.0400E-03  9.6000E-04  9.6000E-04  9.6000E-04  8.8000E-04  8.8000E-04  8.8000E-04
       8.0000E-04  8.0000E-04  8.0000E-04  8.0000E-04  8.0000E-04  8.0000E-04  8.0000E-04  8.0000E-04  8.0000E-04  8.0000E-04
       8.0000E-04  8.0000E-04  8.0000E-04  8.0000E-04  8.0000E-04  8.0000E-04  8.0000E-04  8.0000E-04  8.0000E-04  8.0000E-04
       8.0000E-04  8.0000E-04  8.0000E-04  8.0000E-04  8.0000E-04  8.0000E-04  8.0000E-04  8.0000E-04  8.0000E-04  8.0000E-04
       8.0000E-04  8.0000E-04  8.0000E-04  8.0000E-04  8.0000E-04  8.0000E-04  8.0000E-04  8.0000E-04  8.0000E-04  8.0000E-04
       8.0000E-04  8.0000E-04   0.000       0.000       0.000       0.000       0.000       0.000       0.000    
  32    0.000       0.000       0.000       0.000       0.000       0.000       0.000       0.000       0.000       0.000    
        0.000       0.000       0.000       0.000       0.000       0.000      1.4400E-03  1.4400E-03  1.3600E-03  1.2800E-03
       1.2000E-03  1.1200E-03  1.0400E-03  1.0400E-03  9.6000E-04  9.6000E-04  9.6000E-04  8.8000E-04  8.8000E-04  8.0000E-04
       8.0000E-04  8.0000E-04  8.0000E-04  8.0000E-04  8.0000E-04  8.0000E-04  8.0000E-04  8.0000E-04  8.0000E-04  8.0000E-04
       8.0000E-04  8.0000E-04  8.0000E-04  8.0000E-04  8.0000E-04  8.0000E-04  8.0000E-04  8.0000E-04  8.0000E-04  8.0000E-04
       8.0000E-04  8.0000E-04  8.0000E-04  8.0000E-04  8.0000E-04  8.0000E-04  8.0000E-04  8.0000E-04  8.0000E-04  8.0000E-04
       8.0000E-04  8.0000E-04  8.0000E-04  8.0000E-04  8.0000E-04  8.0000E-04  8.0000E-04  8.0000E-04  8.0000E-04  8.0000E-04
       8.0000E-04  8.0000E-04   0.000       0.000       0.000       0.000       0.000       0.000       0.000    
  33    0.000       0.000       0.000       0.000       0.000       0.000       0.000       0.000       0.000       0.000    
        0.000       0.000       0.000       0.000       0.000      1.5200E-03  1.4400E-03  1.4400E-03  1.2800E-03  1.2800E-03
       1.2000E-03  1.1200E-03  1.0400E-03  9.6000E-04  8.8000E-04  8.8000E-04  8.8000E-04  8.0000E-04  8.0000E-04  8.0000E-04
       8.0000E-04  8.0000E-04  8.0000E-04  8.0000E-04  8.0000E-04  8.0000E-04  8.0000E-04  8.0000E-04  8.0000E-04  8.0000E-04
       8.0000E-04  8.0000E-04  8.0000E-04  8.0000E-04  8.0000E-04  8.0000E-04  8.0000E-04  8.0000E-04  8.0000E-04  8.0000E-04
       8.0000E-04  8.0000E-04  8.0000E-04  8.0000E-04  8.0000E-04  8.0000E-04  8.0000E-04  8.0000E-04  8.0000E-04  8.0000E-04
       8.0000E-04  8.0000E-04  8.0000E-04  8.0000E-04  8.0000E-04  8.0000E-04  8.0000E-04  8.0000E-04  8.0000E-04  8.0000E-04
       8.0000E-04  8.0000E-04  8.0000E-04   0.000       0.000       0.000       0.000       0.000       0.000    
  34    0.000       0.000       0.000       0.000       0.000       0.000       0.000       0.000       0.000       0.000    
        0.000       0.000       0.000       0.000      1.5200E-03  1.5200E-03  1.4400E-03  1.3600E-03  1.2800E-03  1.2000E-03
       1.2000E-03  1.1200E-03  9.6000E-04  8.8000E-04  8.8000E-04  8.8000E-04  8.8000E-04  8.0000E-04  8.0000E-04  8.0000E-04
       8.0000E-04  8.0000E-04  8.0000E-04  8.0000E-04  8.0000E-04  8.0000E-04  8.0000E-04  8.0000E-04  8.0000E-04  8.0000E-04
       8.0000E-04  8.0000E-04  8.0000E-04  8.0000E-04  8.0000E-04  8.0000E-04  8.0000E-04  8.0000E-04  8.0000E-04  8.0000E-04
       8.0000E-04  8.0000E-04  8.0000E-04  8.0000E-04  8.0000E-04  8.0000E-04  8.0000E-04  8.0000E-04  8.0000E-04  8.0000E-04
       8.0000E-04  8.0000E-04  8.0000E-04  8.0000E-04  8.0000E-04  8.0000E-04  8.0000E-04  8.0000E-04  8.0000E-04  8.0000E-04
       8.0000E-04  8.0000E-04  8.0000E-04   0.000       0.000       0.000       0.000       0.000       0.000    
  35    0.000       0.000       0.000       0.000       0.000       0.000       0.000       0.000       0.000       0.000    
        0.000       0.000       0.000      1.6000E-03  1.5200E-03  1.5200E-03  1.3600E-03  1.2800E-03  1.2000E-03  1.2000E-03
       1.1200E-03  1.0400E-03  9.6000E-04  8.8000E-04  8.8000E-04  8.0000E-04  8.0000E-04  8.0000E-04  8.0000E-04  8.0000E-04
       8.0000E-04  8.0000E-04  8.0000E-04  8.0000E-04  8.0000E-04  8.0000E-04  8.0000E-04  8.0000E-04  8.0000E-04  8.0000E-04
       8.0000E-04  8.0000E-04  8.0000E-04  8.0000E-04  8.0000E-04  8.0000E-04  8.0000E-04  8.0000E-04  8.0000E-04  8.0000E-04
       8.0000E-04  8.0000E-04  8.0000E-04  8.0000E-04  8.0000E-04  8.0000E-04  8.0000E-04  8.0000E-04  8.0000E-04  8.0000E-04
       8.0000E-04  8.0000E-04  8.0000E-04  8.0000E-04  8.0000E-04  8.0000E-04  8.0000E-04  8.0000E-04  8.0000E-04  8.0000E-04
       8.0000E-04  8.0000E-04  8.0000E-04  8.0000E-04   0.000       0.000       0.000       0.000       0.000    
  36    0.000       0.000       0.000       0.000       0.000       0.000       0.000       0.000       0.000       0.000    
        0.000       0.000       0.000      1.5200E-03  1.5200E-03  1.4400E-03  1.3600E-03  1.2800E-03  1.2000E-03  1.1200E-03
       1.1200E-03  1.0400E-03  9.6000E-04  8.8000E-04  8.8000E-04  8.0000E-04  8.0000E-04  8.0000E-04  8.0000E-04  8.0000E-04
       8.0000E-04  8.0000E-04  8.0000E-04  8.0000E-04  8.0000E-04  8.0000E-04  8.0000E-04  8.0000E-04  8.0000E-04  8.0000E-04
       8.0000E-04  8.0000E-04  8.0000E-04  8.0000E-04  8.0000E-04  8.0000E-04  8.0000E-04  8.0000E-04  8.0000E-04  8.0000E-04
       8.0000E-04  8.0000E-04  8.0000E-04  8.0000E-04  8.0000E-04  8.0000E-04  8.0000E-04  8.0000E-04  8.0000E-04  8.0000E-04
       8.0000E-04  8.0000E-04  8.0000E-04  8.0000E-04  8.0000E-04  8.0000E-04  8.0000E-04  8.0000E-04  8.0000E-04  8.0000E-04
       8.0000E-04  8.0000E-04  8.0000E-04  8.0000E-04  8.0000E-04   0.000       0.000       0.000       0.000    
  37    0.000       0.000       0.000       0.000       0.000       0.000       0.000       0.000       0.000       0.000    
        0.000       0.000      1.5200E-03  1.5200E-03  1.4400E-03  1.4400E-03  1.3600E-03  1.2800E-03  1.2000E-03  1.2000E-03
       1.1200E-03  1.0400E-03  9.6000E-04  9.6000E-04  8.8000E-04  8.8000E-04  8.0000E-04  8.0000E-04  8.0000E-04  8.0000E-04
       8.0000E-04  8.0000E-04  8.0000E-04  8.0000E-04  8.0000E-04  8.0000E-04  8.0000E-04  8.0000E-04  8.0000E-04  8.0000E-04
       8.0000E-04  8.0000E-04  8.0000E-04  8.0000E-04  8.0000E-04  8.0000E-04  8.0000E-04  8.0000E-04  8.0000E-04  8.0000E-04
       8.0000E-04  8.0000E-04  8.0000E-04  8.0000E-04  8.0000E-04  8.0000E-04  8.0000E-04  8.0000E-04  8.0000E-04  8.0000E-04
       8.0000E-04  8.0000E-04  8.0000E-04  8.0000E-04  8.0000E-04  8.0000E-04  8.0000E-04  8.0000E-04  8.0000E-04  8.0000E-04
       8.0000E-04  8.0000E-04  8.0000E-04  8.0000E-04  8.0000E-04   0.000       0.000       0.000       0.000    
  38    0.000       0.000       0.000       0.000       0.000       0.000       0.000       0.000       0.000       0.000    
       1.6000E-03  1.6000E-03  1.5200E-03  1.5200E-03  1.4400E-03  1.4400E-03  1.3600E-03  1.2800E-03  1.2000E-03  1.2000E-03
       1.1200E-03  1.0400E-03  9.6000E-04  9.6000E-04  8.8000E-04  8.8000E-04  8.0000E-04  8.0000E-04  8.0000E-04  8.0000E-04
       8.0000E-04  8.0000E-04  8.0000E-04  8.0000E-04  8.0000E-04  8.0000E-04  8.0000E-04  8.0000E-04  8.0000E-04  8.0000E-04
       8.0000E-04  8.0000E-04  8.0000E-04  8.0000E-04  8.0000E-04  8.0000E-04  8.0000E-04  8.0000E-04  8.0000E-04  8.0000E-04
       8.0000E-04  8.0000E-04  8.0000E-04  8.0000E-04  8.0000E-04  8.0000E-04  8.0000E-04  8.0000E-04  8.0000E-04  8.0000E-04
       8.0000E-04  8.0000E-04  8.0000E-04  8.0000E-04  8.0000E-04  8.0000E-04  8.0000E-04  8.0000E-04  8.0000E-04  8.0000E-04
       8.0000E-04  8.0000E-04  8.0000E-04  8.0000E-04  8.0000E-04  8.0000E-04   0.000       0.000       0.000    
  39    0.000       0.000       0.000       0.000       0.000       0.000       0.000      1.8400E-03  1.7600E-03  1.6800E-03
       1.6000E-03  1.6000E-03  1.5200E-03  1.5200E-03  1.4400E-03  1.4400E-03  1.3600E-03  1.2800E-03  1.2000E-03  1.2000E-03
       1.1200E-03  1.0400E-03  9.6000E-04  9.6000E-04  9.6000E-04  8.8000E-04  8.0000E-04  8.0000E-04  8.0000E-04  8.0000E-04
       8.0000E-04  8.0000E-04  8.0000E-04  8.0000E-04  8.0000E-04  8.0000E-04  8.0000E-04  8.0000E-04  8.0000E-04  8.0000E-04
       8.0000E-04  8.0000E-04  8.0000E-04  8.0000E-04  8.0000E-04  8.0000E-04  8.0000E-04  8.0000E-04  8.0000E-04  8.0000E-04
       8.0000E-04  8.0000E-04  8.0000E-04  8.0000E-04  8.0000E-04  8.0000E-04  8.0000E-04  8.0000E-04  8.0000E-04  8.0000E-04
       8.0000E-04  8.0000E-04  8.0000E-04  8.0000E-04  8.0000E-04  8.0000E-04  8.0000E-04  8.0000E-04  8.0000E-04  8.0000E-04
       8.0000E-04  8.0000E-04  8.0000E-04  8.0000E-04  8.0000E-04  8.0000E-04   0.000       0.000       0.000    
  40    0.000       0.000       0.000       0.000       0.000       0.000      2.0000E-03  1.8400E-03  1.7600E-03  1.6800E-03
       1.6000E-03  1.5200E-03  1.5200E-03  1.4400E-03  1.4400E-03  1.3600E-03  1.3600E-03  1.2800E-03  1.2800E-03  1.2000E-03
       1.1200E-03  1.0400E-03  9.6000E-04  9.6000E-04  9.6000E-04  8.8000E-04  8.8000E-04  8.0000E-04  8.0000E-04  8.0000E-04
       8.0000E-04  8.0000E-04  8.0000E-04  8.0000E-04  8.0000E-04  8.0000E-04  8.0000E-04  8.0000E-04  8.0000E-04  8.0000E-04
       8.0000E-04  8.0000E-04  8.0000E-04  8.0000E-04  8.0000E-04  8.0000E-04  8.0000E-04  8.0000E-04  8.0000E-04  8.0000E-04
       8.0000E-04  8.0000E-04  8.0000E-04  8.0000E-04  8.0000E-04  8.0000E-04  8.0000E-04  8.0000E-04  8.0000E-04  8.0000E-04
       8.0000E-04  8.0000E-04  8.0000E-04  8.0000E-04  8.0000E-04  8.0000E-04  8.0000E-04  8.0000E-04  8.0000E-04  8.0000E-04
       8.0000E-04  8.0000E-04  8.0000E-04  8.0000E-04  8.0000E-04  8.0000E-04   0.000       0.000       0.000    
  41    0.000       0.000       0.000       0.000       0.000      2.0800E-03  2.0000E-03  1.8400E-03  1.7600E-03  1.6800E-03
       1.6000E-03  1.5200E-03  1.5200E-03  1.4400E-03  1.4400E-03  1.4400E-03  1.3600E-03  1.2800E-03  1.2800E-03  1.2000E-03
       1.1200E-03  1.0400E-03  1.0400E-03  1.0400E-03  1.0400E-03  1.0400E-03  8.8000E-04  8.0000E-04  8.8000E-04  8.0000E-04
       8.0000E-04  8.0000E-04  8.0000E-04  8.0000E-04  8.0000E-04  8.0000E-04  8.0000E-04  8.0000E-04  8.0000E-04  8.0000E-04
       8.0000E-04  8.0000E-04  8.0000E-04  8.0000E-04  8.0000E-04  8.0000E-04  8.0000E-04  8.0000E-04  8.0000E-04  8.0000E-04
       8.0000E-04  8.0000E-04  8.0000E-04  8.0000E-04  8.0000E-04  8.0000E-04  8.0000E-04  8.0000E-04  8.0000E-04  8.0000E-04
       8.0000E-04  8.0000E-04  8.0000E-04  8.0000E-04  8.0000E-04  8.0000E-04  8.0000E-04  8.0000E-04  8.0000E-04  8.0000E-04
       8.0000E-04  8.0000E-04  8.0000E-04  8.0000E-04  8.0000E-04   0.000       0.000       0.000       0.000    
  42    0.000       0.000       0.000       0.000       0.000      2.0800E-03  2.0000E-03  1.8400E-03  1.7600E-03  1.6800E-03
       1.6000E-03  1.5200E-03  1.5200E-03  1.4400E-03  1.5200E-03  1.4400E-03  1.3600E-03  1.3600E-03  1.2800E-03  1.2800E-03
       1.2000E-03  1.1200E-03  1.1200E-03  1.0400E-03  1.0400E-03  1.0400E-03  9.6000E-04  8.8000E-04  8.8000E-04  8.0000E-04
       8.0000E-04  8.0000E-04  8.0000E-04  8.0000E-04  8.0000E-04  8.0000E-04  8.0000E-04  8.0000E-04  8.0000E-04  8.0000E-04
       8.0000E-04  8.0000E-04  8.0000E-04  8.0000E-04  8.0000E-04  8.0000E-04  8.0000E-04  8.0000E-04  8.0000E-04  8.0000E-04
       8.0000E-04  8.0000E-04  8.0000E-04  8.0000E-04  8.0000E-04  8.0000E-04  8.0000E-04  8.0000E-04  8.0000E-04  8.0000E-04
       8.0000E-04  8.0000E-04  8.0000E-04  8.0000E-04  8.0000E-04  8.0000E-04  8.0000E-04  8.0000E-04  8.0000E-04  8.0000E-04
       8.0000E-04  8.0000E-04  8.0000E-04  8.0000E-04  8.0000E-04   0.000       0.000       0.000       0.000    
  43    0.000       0.000       0.000       0.000       0.000      2.0800E-03  2.0800E-03  1.8400E-03  1.7600E-03  1.7600E-03
       1.6800E-03  1.6000E-03  1.5200E-03  1.5200E-03  1.5200E-03  1.5200E-03  1.5200E-03  1.4400E-03  1.3600E-03  1.2800E-03
       1.2000E-03  1.1200E-03  1.1200E-03  1.0400E-03  1.0400E-03  9.6000E-04  9.6000E-04  8.8000E-04  8.8000E-04  8.8000E-04
       8.0000E-04  8.0000E-04  8.0000E-04  8.0000E-04  8.0000E-04  8.0000E-04  8.0000E-04  8.0000E-04  8.0000E-04  8.0000E-04
       8.0000E-04  8.0000E-04  8.0000E-04  8.0000E-04  8.0000E-04  8.0000E-04  8.0000E-04  8.0000E-04  8.0000E-04  8.0000E-04
       8.0000E-04  8.0000E-04  8.0000E-04  8.0000E-04  8.0000E-04  8.0000E-04  8.0000E-04  8.0000E-04  8.0000E-04  8.0000E-04
       8.0000E-04  8.0000E-04  8.0000E-04  8.0000E-04  8.0000E-04  8.0000E-04  8.0000E-04  8.0000E-04  8.0000E-04  8.0000E-04
       8.0000E-04  8.0000E-04  8.0000E-04  8.0000E-04  8.0000E-04   0.000       0.000       0.000       0.000    
  44    0.000       0.000       0.000       0.000       0.000      2.0800E-03  2.0800E-03  2.0000E-03  1.9200E-03  1.7600E-03
       1.6800E-03  1.6000E-03  1.6000E-03  1.6000E-03  1.6000E-03  1.5200E-03  1.5200E-03  1.4400E-03  1.3600E-03  1.2800E-03
       1.2000E-03  1.2000E-03  1.1200E-03  1.0400E-03  1.0400E-03  1.0400E-03  9.6000E-04  9.6000E-04  8.8000E-04  8.8000E-04
       8.0000E-04  8.0000E-04  8.0000E-04  8.0000E-04  8.0000E-04  8.0000E-04  8.0000E-04  8.0000E-04  8.0000E-04  8.0000E-04
       8.0000E-04  8.0000E-04  8.0000E-04  8.0000E-04  8.0000E-04  8.0000E-04  8.0000E-04  8.0000E-04  8.0000E-04  8.0000E-04
       8.0000E-04  8.0000E-04  8.0000E-04  8.0000E-04  8.0000E-04  8.0000E-04  8.0000E-04  8.0000E-04  8.0000E-04  8.0000E-04
       8.0000E-04  8.0000E-04  8.0000E-04  8.0000E-04  8.0000E-04  8.0000E-04  8.0000E-04  8.0000E-04  8.0000E-04  8.0000E-04
       8.0000E-04  8.0000E-04  8.0000E-04  8.0000E-04  8.0000E-04   0.000       0.000       0.000       0.000    
  45    0.000       0.000       0.000      2.0800E-03   0.000      2.0800E-03  2.0800E-03  2.0000E-03  1.8400E-03  1.7600E-03
       1.6800E-03  1.6000E-03  1.6000E-03  1.6000E-03  1.5200E-03  1.5200E-03  1.5200E-03  1.5200E-03  1.4400E-03  1.2800E-03
       1.2000E-03  1.2000E-03  1.2000E-03  1.1200E-03  1.1200E-03  1.0400E-03  1.0400E-03  9.6000E-04  9.6000E-04  8.8000E-04
       8.0000E-04  8.0000E-04  8.0000E-04  8.0000E-04  8.0000E-04  8.0000E-04  8.0000E-04  8.0000E-04  8.0000E-04  8.0000E-04
       8.0000E-04  8.0000E-04  8.0000E-04  8.0000E-04  8.0000E-04  8.0000E-04  8.0000E-04  8.0000E-04  8.0000E-04  8.0000E-04
       8.0000E-04  8.0000E-04  8.0000E-04  8.0000E-04  8.0000E-04  8.0000E-04  8.0000E-04  8.0000E-04  8.0000E-04  8.0000E-04
       8.0000E-04  8.0000E-04  8.0000E-04  8.0000E-04  8.0000E-04  8.0000E-04  8.0000E-04  8.0000E-04  8.0000E-04  8.0000E-04
       8.0000E-04  8.0000E-04  8.0000E-04  8.0000E-04  8.0000E-04   0.000       0.000       0.000       0.000    
  46    0.000       0.000       0.000      2.0800E-03  2.0800E-03  2.0800E-03  2.0000E-03  1.9200E-03  1.8400E-03  1.7600E-03
       1.6000E-03  1.6000E-03  1.6000E-03  1.5200E-03  1.4400E-03  1.4400E-03  1.4400E-03  1.4400E-03  1.4400E-03  1.3600E-03
       1.2800E-03  1.2800E-03  1.2000E-03  1.1200E-03  1.2000E-03  1.1200E-03  1.0400E-03  1.0400E-03  9.6000E-04  8.8000E-04
       8.8000E-04  8.8000E-04  8.0000E-04  8.0000E-04  8.0000E-04  8.0000E-04  8.0000E-04  8.0000E-04  8.8000E-04  8.8000E-04
       8.0000E-04  8.0000E-04  8.0000E-04  8.0000E-04  8.0000E-04  8.0000E-04  8.0000E-04  8.0000E-04  8.0000E-04  8.0000E-04
       8.0000E-04  8.0000E-04  8.0000E-04  8.0000E-04  8.0000E-04  8.0000E-04  8.0000E-04  8.0000E-04  8.0000E-04  8.0000E-04
       8.0000E-04  8.0000E-04  8.0000E-04  8.0000E-04  8.0000E-04  8.0000E-04  8.0000E-04  8.0000E-04  8.0000E-04  8.0000E-04
       8.0000E-04  8.0000E-04  8.0000E-04  8.0000E-04  8.0000E-04   0.000       0.000       0.000       0.000    
  47    0.000       0.000       0.000      2.0800E-03  2.0800E-03  2.0000E-03  1.9200E-03  1.8400E-03  1.7600E-03  1.6800E-03
       1.6000E-03  1.5200E-03  1.5200E-03  1.4400E-03  1.4400E-03  1.4400E-03  1.4400E-03  1.4400E-03  1.3600E-03  1.4400E-03
       1.3600E-03  1.3600E-03  1.2800E-03  1.2000E-03  1.2000E-03  1.1200E-03  1.0400E-03  1.0400E-03  9.6000E-04  9.6000E-04
       8.8000E-04  8.8000E-04  8.0000E-04  8.0000E-04  8.0000E-04  8.0000E-04  8.0000E-04  8.8000E-04  8.8000E-04  8.8000E-04
       8.0000E-04  8.0000E-04  8.0000E-04  8.0000E-04  8.0000E-04  8.0000E-04  8.0000E-04  8.0000E-04  8.0000E-04  8.0000E-04
       8.0000E-04  8.0000E-04  8.0000E-04  8.0000E-04  8.0000E-04  8.0000E-04  8.0000E-04  8.0000E-04  8.0000E-04  8.0000E-04
       8.0000E-04  8.0000E-04  8.0000E-04  8.0000E-04  8.0000E-04  8.0000E-04  8.0000E-04  8.0000E-04  8.0000E-04  8.0000E-04
       8.0000E-04  8.0000E-04  8.0000E-04  8.0000E-04  8.0000E-04   0.000       0.000       0.000       0.000    
  48    0.000       0.000       0.000      2.0800E-03  2.0800E-03  2.0800E-03  2.0000E-03  1.9200E-03  1.7600E-03  1.6800E-03
       1.6000E-03  1.5200E-03  1.5200E-03  1.5200E-03  1.4400E-03  1.4400E-03  1.4400E-03  1.4400E-03  1.4400E-03  1.4400E-03
       1.4400E-03  1.3600E-03  1.2800E-03  1.2800E-03  1.2000E-03  1.1200E-03  1.0400E-03  1.0400E-03  9.6000E-04  9.6000E-04
       8.8000E-04  8.8000E-04  8.0000E-04  8.0000E-04  8.0000E-04  8.0000E-04  8.0000E-04  8.0000E-04  8.0000E-04  8.0000E-04
       8.0000E-04  8.0000E-04  8.0000E-04  8.0000E-04  8.0000E-04  8.0000E-04  8.0000E-04  8.0000E-04  8.0000E-04  8.8000E-04
       8.8000E-04  8.8000E-04  8.8000E-04  8.8000E-04  8.0000E-04  8.0000E-04  8.0000E-04  8.0000E-04  8.0000E-04  8.0000E-04
       8.0000E-04  8.0000E-04  8.0000E-04  8.0000E-04  8.0000E-04  8.0000E-04  8.0000E-04  8.0000E-04  8.0000E-04  8.0000E-04
       8.0000E-04  8.0000E-04  8.0000E-04  8.0000E-04  8.0000E-04  8.0000E-04   0.000       0.000       0.000    
  49    0.000       0.000       0.000      2.1600E-03  2.0800E-03  2.0800E-03  1.9200E-03  1.8400E-03  1.7600E-03  1.6800E-03
       1.6000E-03  1.5200E-03  1.5200E-03  1.5200E-03  1.4400E-03  1.5200E-03  1.5200E-03  1.5200E-03  1.5200E-03  1.4400E-03
       1.4400E-03  1.3600E-03  1.2800E-03  1.2800E-03  1.2000E-03  1.1200E-03  1.0400E-03  1.0400E-03  9.6000E-04  9.6000E-04
       8.8000E-04  8.8000E-04  8.0000E-04  8.0000E-04  8.8000E-04  8.0000E-04  8.0000E-04  8.0000E-04  8.0000E-04  8.0000E-04
       8.0000E-04  8.8000E-04  8.0000E-04  8.0000E-04  8.0000E-04  8.0000E-04  8.0000E-04  8.0000E-04  8.8000E-04  8.8000E-04
       9.6000E-04  9.6000E-04  9.6000E-04  8.8000E-04  8.0000E-04  8.0000E-04  8.0000E-04  8.0000E-04  8.0000E-04  8.0000E-04
       8.0000E-04  8.0000E-04  8.0000E-04  8.0000E-04  8.0000E-04  8.0000E-04  8.0000E-04  8.0000E-04  8.0000E-04  8.0000E-04
       8.0000E-04  8.0000E-04  8.0000E-04  8.0000E-04  8.0000E-04  8.0000E-04   0.000       0.000       0.000    
  50    0.000       0.000       0.000      2.1600E-03  2.0800E-03  2.0000E-03  1.9200E-03  1.8400E-03  1.6800E-03  1.6800E-03
       1.6000E-03  1.5200E-03  1.5200E-03  1.5200E-03  1.5200E-03  1.5200E-03  1.5200E-03  1.5200E-03  1.5200E-03  1.4400E-03
       1.3600E-03  1.3600E-03  1.2800E-03  1.2000E-03  1.2000E-03  1.1200E-03  1.1200E-03  1.0400E-03  1.0400E-03  1.0400E-03
       9.6000E-04  9.6000E-04  8.8000E-04  8.8000E-04  8.8000E-04  8.8000E-04  8.0000E-04  8.0000E-04  8.0000E-04  8.0000E-04
       8.8000E-04  8.8000E-04  8.8000E-04  8.8000E-04  8.0000E-04  8.0000E-04  8.0000E-04  8.0000E-04  8.8000E-04  9.6000E-04
       9.6000E-04  9.6000E-04  9.6000E-04  9.6000E-04  8.8000E-04  8.0000E-04  8.0000E-04  8.0000E-04  8.0000E-04  8.0000E-04
       8.0000E-04  8.0000E-04  8.0000E-04  8.0000E-04  8.0000E-04  8.0000E-04  8.0000E-04  8.0000E-04  8.0000E-04  8.0000E-04
       8.0000E-04  8.0000E-04  8.0000E-04  8.0000E-04  8.0000E-04  8.0000E-04   0.000       0.000       0.000    
  51    0.000       0.000       0.000      2.1600E-03  2.0800E-03  1.9200E-03  1.8400E-03  1.7600E-03  1.6800E-03  1.6000E-03
       1.6000E-03  1.6000E-03  1.6000E-03  1.5200E-03  1.5200E-03  1.6000E-03  1.6000E-03  1.5200E-03  1.5200E-03  1.4400E-03
       1.3600E-03  1.3600E-03  1.2800E-03  1.2800E-03  1.2000E-03  1.2000E-03  1.1200E-03  1.1200E-03  1.0400E-03  1.0400E-03
       9.6000E-04  9.6000E-04  8.8000E-04  8.8000E-04  8.8000E-04  8.8000E-04  8.0000E-04  8.0000E-04  8.0000E-04  8.0000E-04
       8.8000E-04  8.8000E-04  8.8000E-04  8.8000E-04  8.8000E-04  8.0000E-04  8.0000E-04  8.0000E-04  8.0000E-04  9.6000E-04
       1.0400E-03  1.0400E-03  9.6000E-04  9.6000E-04  8.8000E-04  8.0000E-04  8.0000E-04  8.0000E-04  8.0000E-04  8.0000E-04
       8.0000E-04  8.0000E-04  8.0000E-04  8.0000E-04  8.0000E-04  8.0000E-04  8.0000E-04  8.0000E-04  8.0000E-04  8.0000E-04
       8.0000E-04  8.0000E-04  8.0000E-04  8.0000E-04  8.0000E-04  8.0000E-04   0.000       0.000       0.000    
  52    0.000       0.000      2.1600E-03  2.1600E-03  2.0800E-03  1.9200E-03  1.8400E-03  1.6800E-03  1.6000E-03  1.6000E-03
       1.6000E-03  1.6000E-03  1.6800E-03  1.6800E-03  1.6000E-03  1.6800E-03  1.6800E-03  1.5200E-03  1.5200E-03  1.4400E-03
       1.3600E-03  1.3600E-03  1.2800E-03  1.2800E-03  1.2800E-03  1.2000E-03  1.1200E-03  1.1200E-03  1.0400E-03  1.0400E-03
       9.6000E-04  9.6000E-04  8.8000E-04  8.8000E-04  8.8000E-04  8.8000E-04  8.0000E-04  8.0000E-04  8.0000E-04  8.0000E-04
       8.8000E-04  8.8000E-04  8.8000E-04  9.6000E-04  8.8000E-04  8.0000E-04  8.0000E-04  8.0000E-04  8.0000E-04  9.6000E-04
       1.0400E-03  1.0400E-03  1.0400E-03  1.0400E-03  9.6000E-04  8.0000E-04  8.0000E-04  8.0000E-04  8.0000E-04  8.0000E-04
       8.0000E-04  8.0000E-04  8.0000E-04  8.0000E-04  8.0000E-04  8.0000E-04  8.0000E-04  8.0000E-04  8.0000E-04  8.0000E-04
       8.0000E-04  8.0000E-04  8.0000E-04  8.0000E-04  8.0000E-04  8.0000E-04   0.000       0.000       0.000    
  53    0.000       0.000      2.2400E-03  2.1600E-03  2.0800E-03  1.9200E-03  1.8400E-03  1.7600E-03  1.6800E-03  1.6000E-03
       1.6800E-03  1.6800E-03  1.6800E-03  1.6800E-03  1.6800E-03  1.7600E-03  1.6800E-03  1.6000E-03  1.5200E-03  1.4400E-03
       1.4400E-03  1.3600E-03  1.3600E-03  1.2800E-03  1.2800E-03  1.2000E-03  1.1200E-03  1.1200E-03  1.0400E-03  1.0400E-03
       9.6000E-04  9.6000E-04  8.8000E-04  8.8000E-04  8.8000E-04  8.0000E-04  8.0000E-04  8.0000E-04  8.0000E-04  8.0000E-04
       8.8000E-04  8.8000E-04  9.6000E-04  9.6000E-04  9.6000E-04  9.6000E-04  8.0000E-04  8.0000E-04  8.0000E-04  8.0000E-04
       8.8000E-04  1.0400E-03  1.0400E-03  1.1200E-03  1.0400E-03  8.8000E-04  8.0000E-04  8.0000E-04  8.0000E-04  8.0000E-04
       8.0000E-04  8.0000E-04  8.0000E-04  8.0000E-04  8.0000E-04  8.0000E-04  8.0000E-04  8.0000E-04  8.0000E-04  8.0000E-04
       8.0000E-04  8.0000E-04  8.0000E-04  8.0000E-04  8.0000E-04  8.0000E-04  8.0000E-04   0.000       0.000    
  54    0.000       0.000      2.2400E-03  2.1600E-03  2.0800E-03  1.9200E-03  1.8400E-03  1.7600E-03  1.6800E-03  1.6800E-03
       1.6800E-03  1.7600E-03  1.7600E-03  1.7600E-03  1.7600E-03  1.8400E-03  1.7600E-03  1.6800E-03  1.6000E-03  1.5200E-03
       1.4400E-03  1.4400E-03  1.3600E-03  1.3600E-03  1.2800E-03  1.2000E-03  1.2000E-03  1.1200E-03  1.0400E-03  1.0400E-03
       9.6000E-04  9.6000E-04  8.8000E-04  8.8000E-04  8.8000E-04  8.8000E-04  8.0000E-04  8.0000E-04  8.0000E-04  8.0000E-04
       8.8000E-04  8.8000E-04  9.6000E-04  1.0400E-03  1.0400E-03  9.6000E-04  8.8000E-04  8.0000E-04  8.8000E-04  8.8000E-04
       9.6000E-04  1.0400E-03  1.1200E-03  1.1200E-03  1.0400E-03  8.8000E-04  8.0000E-04  8.0000E-04  8.0000E-04  8.0000E-04
       8.0000E-04  8.0000E-04  8.0000E-04  8.0000E-04  8.0000E-04  8.0000E-04  8.0000E-04  8.0000E-04  8.0000E-04  8.0000E-04
       8.0000E-04  8.0000E-04  8.0000E-04  8.0000E-04  8.0000E-04  8.0000E-04  8.0000E-04   0.000       0.000    
  55    0.000      2.3200E-03  2.2400E-03  2.1600E-03  2.0000E-03  1.9200E-03  1.8400E-03  1.7600E-03  1.7600E-03  1.6800E-03
       1.7600E-03  1.7600E-03  1.8400E-03  1.8400E-03  1.8400E-03  1.8400E-03  1.8400E-03  1.7600E-03  1.6800E-03  1.5200E-03
       1.5200E-03  1.4400E-03  1.3600E-03  1.3600E-03  1.2800E-03  1.3600E-03  1.2800E-03  1.1200E-03  1.0400E-03  1.0400E-03
       1.0400E-03  9.6000E-04  9.6000E-04  8.8000E-04  8.8000E-04  8.8000E-04  8.0000E-04  8.0000E-04  8.0000E-04  8.8000E-04
       8.8000E-04  9.6000E-04  9.6000E-04  1.0400E-03  1.1200E-03  1.0400E-03  9.6000E-04  8.8000E-04  8.8000E-04  8.8000E-04
       9.6000E-04  1.0400E-03  1.1200E-03  1.1200E-03  1.0400E-03  8.8000E-04  8.8000E-04  8.0000E-04  8.0000E-04  8.0000E-04
       8.0000E-04  8.0000E-04  8.0000E-04  8.0000E-04  8.0000E-04  8.0000E-04  8.0000E-04  8.0000E-04  8.0000E-04  8.0000E-04
       8.0000E-04  8.0000E-04  8.0000E-04  8.0000E-04  8.0000E-04  8.0000E-04  8.0000E-04   0.000       0.000    
  56    0.000      2.3200E-03  2.1600E-03  2.0800E-03  2.0800E-03  1.9200E-03  1.9200E-03  1.8400E-03  1.7600E-03  1.7600E-03
       1.7600E-03  1.8400E-03  1.8400E-03  1.8400E-03  1.8400E-03  1.9200E-03  1.9200E-03  1.8400E-03  1.6800E-03  1.6000E-03
       1.6000E-03  1.5200E-03  1.4400E-03  1.4400E-03  1.3600E-03  1.3600E-03  1.2800E-03  1.2000E-03  1.1200E-03  1.0400E-03
       1.0400E-03  9.6000E-04  9.6000E-04  8.8000E-04  8.8000E-04  8.8000E-04  8.0000E-04  8.0000E-04  8.8000E-04  8.8000E-04
       9.6000E-04  9.6000E-04  1.0400E-03  1.0400E-03  1.1200E-03  1.1200E-03  9.6000E-04  8.8000E-04  9.6000E-04  8.8000E-04
       9.6000E-04  1.0400E-03  1.1200E-03  1.1200E-03  1.0400E-03  9.6000E-04  8.8000E-04  8.0000E-04  8.0000E-04  8.0000E-04
       8.0000E-04  8.0000E-04  8.0000E-04  8.0000E-04  8.0000E-04  8.0000E-04  8.0000E-04  8.0000E-04  8.0000E-04  8.0000E-04
       8.0000E-04  8.0000E-04  8.0000E-04  8.0000E-04  8.0000E-04  8.0000E-04  8.0000E-04   0.000       0.000    
  57   2.3200E-03  2.2400E-03  2.0800E-03  2.0800E-03  2.0800E-03  2.0000E-03  2.0000E-03  1.9200E-03  1.8400E-03  1.7600E-03
       1.8400E-03  1.9200E-03  1.9200E-03  1.9200E-03  1.9200E-03  1.9200E-03  1.9200E-03  1.9200E-03  1.8400E-03  1.7600E-03
       1.6800E-03  1.6000E-03  1.5200E-03  1.4400E-03  1.3600E-03  1.3600E-03  1.2800E-03  1.2000E-03  1.1200E-03  1.0400E-03
       1.0400E-03  9.6000E-04  9.6000E-04  8.8000E-04  8.8000E-04  8.8000E-04  8.8000E-04  8.8000E-04  8.8000E-04  9.6000E-04
       9.6000E-04  1.0400E-03  1.1200E-03  1.1200E-03  1.2000E-03  1.1200E-03  1.0400E-03  9.6000E-04  9.6000E-04  9.6000E-04
       9.6000E-04  1.0400E-03  1.1200E-03  1.1200E-03  1.1200E-03  1.0400E-03  9.6000E-04  8.8000E-04  8.8000E-04  8.0000E-04
       8.0000E-04  8.0000E-04  8.0000E-04  8.0000E-04  8.0000E-04  8.0000E-04  8.0000E-04  8.0000E-04  8.0000E-04  8.0000E-04
       8.0000E-04  8.0000E-04  8.0000E-04  8.0000E-04  8.0000E-04  8.0000E-04  8.0000E-04   0.000       0.000    
  58   2.3200E-03  2.2400E-03  2.1600E-03  2.0800E-03  2.0800E-03  2.0800E-03  2.0000E-03  2.0000E-03  1.9200E-03  1.8400E-03
       1.8400E-03  1.9200E-03  1.9200E-03  1.9200E-03  1.9200E-03  1.9200E-03  2.0000E-03  1.9200E-03  1.8400E-03  1.7600E-03
       1.6800E-03  1.6000E-03  1.5200E-03  1.4400E-03  1.4400E-03  1.3600E-03  1.2800E-03  1.2000E-03  1.1200E-03  1.0400E-03
       1.0400E-03  9.6000E-04  8.8000E-04  8.8000E-04  8.8000E-04  8.8000E-04  8.8000E-04  8.8000E-04  8.8000E-04  8.8000E-04
       1.0400E-03  1.0400E-03  1.1200E-03  1.2000E-03  1.2000E-03  1.2000E-03  1.1200E-03  1.0400E-03  9.6000E-04  9.6000E-04
       9.6000E-04  9.6000E-04  1.0400E-03  1.1200E-03  1.1200E-03  1.0400E-03  9.6000E-04  9.6000E-04  8.8000E-04  8.0000E-04
       8.0000E-04  8.0000E-04  8.0000E-04  8.0000E-04  8.0000E-04  8.0000E-04  8.0000E-04  8.0000E-04  8.0000E-04  8.0000E-04
       8.0000E-04  8.0000E-04  8.0000E-04  8.0000E-04  8.0000E-04  8.0000E-04  8.0000E-04   0.000       0.000    
  59   2.3200E-03  2.3200E-03  2.1600E-03  2.0800E-03  2.0000E-03  2.0000E-03  2.0800E-03  2.0800E-03  1.9200E-03  1.9200E-03
       1.9200E-03  2.0000E-03  2.0000E-03  2.0000E-03  2.0000E-03  2.0000E-03  2.0000E-03  1.9200E-03  1.9200E-03  1.7600E-03
       1.7600E-03  1.6800E-03  1.6000E-03  1.5200E-03  1.4400E-03  1.3600E-03  1.2800E-03  1.2000E-03  1.1200E-03  1.0400E-03
       1.0400E-03  9.6000E-04  9.6000E-04  8.8000E-04  8.8000E-04  8.8000E-04  8.8000E-04  8.8000E-04  8.8000E-04  8.8000E-04
       9.6000E-04  1.0400E-03  1.0400E-03  1.1200E-03  1.2000E-03  1.2000E-03  1.2000E-03  1.1200E-03  1.0400E-03  1.0400E-03
       1.0400E-03  1.0400E-03  1.0400E-03  1.2000E-03  1.2000E-03  1.0400E-03  1.0400E-03  9.6000E-04  9.6000E-04  8.8000E-04
       8.8000E-04  8.8000E-04  8.0000E-04  8.0000E-04  8.0000E-04  8.0000E-04  8.0000E-04  8.0000E-04  8.0000E-04  8.0000E-04
       8.0000E-04  8.0000E-04  8.0000E-04  8.0000E-04  8.0000E-04  8.0000E-04  8.0000E-04  8.0000E-04   0.000    
  60    0.000      2.3200E-03  2.2400E-03  2.0800E-03  2.0800E-03  2.0000E-03  2.1600E-03  2.1600E-03  2.0800E-03  2.0000E-03
       2.0000E-03  2.0800E-03  2.0800E-03   0.000       0.000       0.000      2.0800E-03  2.0000E-03  1.9200E-03  1.8400E-03
       1.7600E-03  1.7600E-03  1.6000E-03  1.5200E-03  1.4400E-03  1.4400E-03  1.3600E-03  1.2800E-03  1.2000E-03  1.1200E-03
       1.0400E-03  1.0400E-03  9.6000E-04  9.6000E-04  8.8000E-04  8.8000E-04  8.8000E-04  8.8000E-04  8.8000E-04  8.8000E-04
       9.6000E-04  1.0400E-03  1.0400E-03  1.1200E-03  1.2000E-03  1.2800E-03  1.2800E-03  1.2000E-03  1.1200E-03  1.1200E-03
       1.0400E-03  1.0400E-03  1.1200E-03  1.2000E-03  1.2000E-03  1.1200E-03  1.0400E-03  9.6000E-04  9.6000E-04  9.6000E-04
       8.8000E-04  8.8000E-04  8.8000E-04  8.0000E-04  8.0000E-04  8.0000E-04  8.0000E-04  8.0000E-04  8.0000E-04  8.0000E-04
       8.0000E-04  8.0000E-04  8.0000E-04  8.0000E-04  8.0000E-04  8.0000E-04  8.0000E-04  8.0000E-04  8.0000E-04
  61    0.000       0.000      2.3200E-03  2.2400E-03  2.1600E-03  2.0800E-03  2.1600E-03  2.2400E-03  2.1600E-03  2.1600E-03
       2.0800E-03   0.000       0.000       0.000       0.000       0.000       0.000      2.0800E-03  2.0000E-03  1.9200E-03
       1.8400E-03  1.7600E-03  1.6800E-03  1.6000E-03  1.5200E-03  1.4400E-03  1.3600E-03  1.2800E-03  1.2000E-03  1.1200E-03
       1.0400E-03  1.0400E-03  9.6000E-04  9.6000E-04  8.8000E-04  8.8000E-04  8.8000E-04  8.8000E-04  8.8000E-04  8.8000E-04
       9.6000E-04  1.0400E-03  1.1200E-03  1.1200E-03  1.2000E-03  1.2800E-03  1.2800E-03  1.2000E-03  1.1200E-03  1.1200E-03
       1.1200E-03  1.1200E-03  1.1200E-03  1.2000E-03  1.2000E-03  1.1200E-03  1.1200E-03  1.0400E-03  1.0400E-03  1.0400E-03
       9.6000E-04  9.6000E-04  9.6000E-04  9.6000E-04  8.8000E-04  8.0000E-04  8.0000E-04  8.0000E-04  8.0000E-04  8.0000E-04
       8.0000E-04  8.0000E-04  8.0000E-04  8.0000E-04  8.0000E-04  8.0000E-04  8.0000E-04  8.0000E-04  8.0000E-04
  62    0.000       0.000       0.000      2.3200E-03   0.000       0.000       0.000       0.000       0.000       0.000    
        0.000       0.000       0.000       0.000       0.000       0.000       0.000       0.000       0.000      1.9200E-03
       1.8400E-03  1.7600E-03  1.6800E-03  1.6000E-03  1.6000E-03  1.4400E-03  1.3600E-03  1.2800E-03  1.2000E-03  1.1200E-03
       1.1200E-03  1.0400E-03  9.6000E-04  9.6000E-04  8.8000E-04  8.8000E-04  8.8000E-04  8.8000E-04  8.8000E-04  9.6000E-04
       9.6000E-04  1.0400E-03  1.1200E-03  1.2000E-03  1.2800E-03  1.3600E-03  1.3600E-03  1.2800E-03  1.2000E-03  1.2000E-03
       1.1200E-03  1.1200E-03  1.1200E-03  1.2000E-03  1.2000E-03  1.2000E-03  1.2000E-03  1.1200E-03  1.1200E-03  1.0400E-03
       1.0400E-03  1.0400E-03  1.0400E-03  9.6000E-04  8.8000E-04  8.8000E-04  8.0000E-04  8.0000E-04  8.0000E-04  8.0000E-04
       8.0000E-04  8.0000E-04  8.0000E-04  8.0000E-04  8.0000E-04  8.0000E-04  8.0000E-04  8.0000E-04  8.0000E-04
  63    0.000       0.000       0.000       0.000       0.000       0.000       0.000       0.000       0.000       0.000    
        0.000       0.000       0.000       0.000       0.000       0.000       0.000       0.000       0.000      1.9200E-03
       1.8400E-03  1.6800E-03  1.6000E-03  1.6000E-03  1.5200E-03  1.4400E-03  1.3600E-03  1.2800E-03  1.2000E-03  1.1200E-03
       1.0400E-03  1.0400E-03  9.6000E-04  9.6000E-04  8.8000E-04  8.8000E-04  8.8000E-04  8.8000E-04  8.8000E-04  9.6000E-04
       9.6000E-04  9.6000E-04  1.0400E-03  1.1200E-03  1.2000E-03  1.2800E-03  1.3600E-03  1.3600E-03  1.2800E-03  1.2800E-03
       1.2000E-03  1.2000E-03  1.1200E-03  1.2000E-03  1.2000E-03  1.2800E-03  1.2000E-03  1.2000E-03  1.1200E-03  1.1200E-03
       1.1200E-03  1.1200E-03  1.0400E-03  1.0400E-03  9.6000E-04  8.8000E-04  8.8000E-04  8.0000E-04  8.0000E-04  8.0000E-04
       8.0000E-04  8.0000E-04  8.0000E-04  8.0000E-04  8.0000E-04  8.0000E-04  8.0000E-04  8.0000E-04  8.0000E-04
  64    0.000       0.000       0.000       0.000       0.000       0.000       0.000       0.000       0.000       0.000    
        0.000       0.000       0.000       0.000       0.000       0.000       0.000       0.000       0.000       0.000    
        0.000       0.000       0.000       0.000      1.5200E-03  1.4400E-03  1.3600E-03  1.2800E-03  1.2000E-03  1.1200E-03
       1.1200E-03  1.1200E-03  1.0400E-03  9.6000E-04  9.6000E-04  8.8000E-04  8.8000E-04  8.8000E-04  8.8000E-04  8.8000E-04
       9.6000E-04  9.6000E-04  1.0400E-03  1.1200E-03  1.2000E-03  1.2800E-03  1.3600E-03  1.3600E-03  1.3600E-03  1.2800E-03
       1.2000E-03  1.2000E-03  1.2000E-03  1.2000E-03  1.2800E-03  1.2800E-03  1.2800E-03  1.2000E-03  1.2000E-03  1.2000E-03
       1.2000E-03  1.1200E-03  1.1200E-03  1.0400E-03  9.6000E-04  9.6000E-04  8.8000E-04  8.0000E-04  8.0000E-04  8.0000E-04
       8.0000E-04  8.0000E-04  8.0000E-04  8.0000E-04  8.0000E-04  8.0000E-04  8.0000E-04  8.0000E-04  8.0000E-04
  65    0.000       0.000       0.000       0.000       0.000       0.000       0.000       0.000       0.000       0.000    
        0.000       0.000       0.000       0.000       0.000       0.000       0.000       0.000       0.000       0.000    
        0.000       0.000       0.000       0.000       0.000       0.000       0.000       0.000       0.000       0.000    
        0.000       0.000       0.000      9.6000E-04  9.6000E-04  8.8000E-04  8.8000E-04  8.8000E-04  8.8000E-04  9.6000E-04
       9.6000E-04  9.6000E-04  1.0400E-03  1.1200E-03  1.2000E-03   0.000       0.000       0.000       0.000      1.3600E-03
       1.2800E-03  1.2800E-03  1.2000E-03  1.2000E-03  1.2800E-03  1.2800E-03  1.3600E-03  1.2800E-03  1.2800E-03  1.2800E-03
       1.2000E-03  1.2000E-03  1.1200E-03  1.0400E-03  1.1200E-03  1.0400E-03  8.8000E-04  8.0000E-04  8.0000E-04  8.0000E-04
       8.0000E-04  8.0000E-04  8.0000E-04  8.0000E-04  8.0000E-04  8.0000E-04  8.0000E-04  8.0000E-04  8.8000E-04
  66    0.000       0.000       0.000       0.000       0.000       0.000       0.000       0.000       0.000       0.000    
        0.000       0.000       0.000       0.000       0.000       0.000       0.000       0.000       0.000       0.000    
        0.000       0.000       0.000       0.000       0.000       0.000       0.000       0.000       0.000       0.000    
        0.000       0.000       0.000       0.000       0.000      9.6000E-04  8.8000E-04   0.000       0.000       0.000    
        0.000       0.000       0.000       0.000       0.000       0.000       0.000       0.000       0.000       0.000    
       1.3600E-03  1.3600E-03  1.2800E-03  1.2800E-03  1.2800E-03  1.2800E-03  1.2800E-03  1.3600E-03  1.2800E-03  1.3600E-03
       1.3600E-03  1.2800E-03  1.2000E-03  1.2000E-03  1.1200E-03  1.0400E-03  9.6000E-04  8.8000E-04  8.0000E-04  8.0000E-04
       8.0000E-04  8.0000E-04  8.0000E-04  8.0000E-04  8.0000E-04  8.0000E-04  8.0000E-04  8.8000E-04  8.8000E-04
  67    0.000       0.000       0.000       0.000       0.000       0.000       0.000       0.000       0.000       0.000    
        0.000       0.000       0.000       0.000       0.000       0.000       0.000       0.000       0.000       0.000    
        0.000       0.000       0.000       0.000       0.000       0.000       0.000       0.000       0.000       0.000    
        0.000       0.000       0.000       0.000       0.000       0.000       0.000       0.000       0.000       0.000    
        0.000       0.000       0.000       0.000       0.000       0.000       0.000       0.000       0.000       0.000    
        0.000       0.000      1.3600E-03  1.3600E-03  1.2800E-03  1.2800E-03  1.3600E-03  1.3600E-03  1.3600E-03  1.4400E-03
       1.3600E-03  1.2800E-03  1.2800E-03  1.2000E-03  1.1200E-03  1.0400E-03  9.6000E-04  8.8000E-04  8.8000E-04  8.8000E-04
       8.0000E-04   0.000       0.000       0.000       0.000       0.000       0.000       0.000       0.000    
  68    0.000       0.000       0.000       0.000       0.000       0.000       0.000       0.000       0.000       0.000    
        0.000       0.000       0.000       0.000       0.000       0.000       0.000       0.000       0.000       0.000    
        0.000       0.000       0.000       0.000       0.000       0.000       0.000       0.000       0.000       0.000    
        0.000       0.000       0.000       0.000       0.000       0.000       0.000       0.000       0.000       0.000    
        0.000       0.000       0.000       0.000       0.000       0.000       0.000       0.000       0.000       0.000    
        0.000       0.000       0.000      1.3600E-03  1.3600E-03  1.2800E-03  1.3600E-03  1.4400E-03  1.4400E-03  1.4400E-03
       1.3600E-03  1.3600E-03  1.2800E-03  1.2000E-03  1.1200E-03  1.0400E-03  9.6000E-04  8.8000E-04   0.000       0.000    
        0.000       0.000       0.000       0.000       0.000       0.000       0.000       0.000       0.000    
  69    0.000       0.000       0.000       0.000       0.000       0.000       0.000       0.000       0.000       0.000    
        0.000       0.000       0.000       0.000       0.000       0.000       0.000       0.000       0.000       0.000    
        0.000       0.000       0.000       0.000       0.000       0.000       0.000       0.000       0.000       0.000    
        0.000       0.000       0.000       0.000       0.000       0.000       0.000       0.000       0.000       0.000    
        0.000       0.000       0.000       0.000       0.000       0.000       0.000       0.000       0.000       0.000    
        0.000       0.000       0.000       0.000       0.000       0.000       0.000       0.000       0.000       0.000    
       1.3600E-03  1.3600E-03  1.2800E-03  1.2000E-03  1.1200E-03  1.0400E-03  9.6000E-04   0.000       0.000       0.000    
        0.000       0.000       0.000       0.000       0.000       0.000       0.000       0.000       0.000    
  70    0.000       0.000       0.000       0.000       0.000       0.000       0.000       0.000       0.000       0.000    
        0.000       0.000       0.000       0.000       0.000       0.000       0.000       0.000       0.000       0.000    
        0.000       0.000       0.000       0.000       0.000       0.000       0.000       0.000       0.000       0.000    
        0.000       0.000       0.000       0.000       0.000       0.000       0.000       0.000       0.000       0.000    
        0.000       0.000       0.000       0.000       0.000       0.000       0.000       0.000       0.000       0.000    
        0.000       0.000       0.000       0.000       0.000       0.000       0.000       0.000       0.000       0.000    
        0.000      1.3600E-03  1.2800E-03  1.2000E-03  1.2000E-03  1.1200E-03   0.000       0.000       0.000       0.000    
        0.000       0.000       0.000       0.000       0.000       0.000       0.000       0.000       0.000    
  71    0.000       0.000       0.000       0.000       0.000       0.000       0.000       0.000       0.000       0.000    
        0.000       0.000       0.000       0.000       0.000       0.000       0.000       0.000       0.000       0.000    
        0.000       0.000       0.000       0.000       0.000       0.000       0.000       0.000       0.000       0.000    
        0.000       0.000       0.000       0.000       0.000       0.000       0.000       0.000       0.000       0.000    
        0.000       0.000       0.000       0.000       0.000       0.000       0.000       0.000       0.000       0.000    
        0.000       0.000       0.000       0.000       0.000       0.000       0.000       0.000       0.000       0.000    
        0.000       0.000      1.3600E-03  1.2800E-03   0.000       0.000       0.000       0.000       0.000       0.000    
        0.000       0.000       0.000       0.000       0.000       0.000       0.000       0.000       0.000    

                  ET RATE =  8.000000E-03

      ET EXTINCTION DEPTH =   1.00000    

 EXTINCTION WATER CONTENT =  5.500000E-02


 LAKE PACKAGE ACTIVE:  CALCULATED LAKE STAGE FOR EACH TIME STEP WILL BE STORED IN HNEW ARRAY.



 INITIAL LAKE STAGE:  LAKE    STAGE    SS MIN    SS MAX

                        1  2040.000  2019.000  2050.200
                        2  1954.000  1940.000  1961.300




 If any subsequent steady-state stress periods, min. and max. stages for each lake will be read in Record 9a.





                      LAKE ID ARRAY FOR LAYER   1
 READING ON UNIT   18 WITH FORMAT: (FREE)              

            LAKE ID ARRAY =              0 FOR LAYER   2

            LAKE ID ARRAY =              0 FOR LAYER   3







             LAKEBED LEAKANCE ARRAY FOR LAYER   1
 READING ON UNIT   18 WITH FORMAT: (FREE)              



             LAKEBED LEAKANCE ARRAY FOR LAYER   2
 READING ON UNIT   18 WITH FORMAT: (FREE)              

   LAKEBED LEAKANCE ARRAY =   0.00000     FOR LAYER   3

       LOCATIONS, LAKE #, INTERFACE TYPE FOR GRID CELLS ADJACENT TO LAKES:
     -----------------------------------------------------------------------
     LAYER #    ROW #    COLUMN #   LAKE #  INTERFACE TYPE  LAKEBED LEAKANCE
         1        32        37         1         2             1.000E-02
         1        33        37         1         2             1.000E-02
         1        34        37         1         2             1.000E-02
         1        31        38         1         2             1.000E-02
         1        31        38         1         3             1.000E-02
         2        32        38         1         6             1.000E-02
         2        33        38         1         6             1.000E-02
         2        34        38         1         6             1.000E-02
         1        35        38         1         4             1.000E-02
         1        30        39         1         2             1.000E-02
         1        30        39         1         3             1.000E-02
         2        31        39         1         6             1.000E-02
         2        32        39         1         6             1.000E-02
         2        33        39         1         6             1.000E-02
         2        34        39         1         6             1.000E-02
         1        35        39         1         4             1.000E-02
         1        29        40         1         3             1.000E-02
         2        30        40         1         6             1.000E-02
         2        31        40         1         6             1.000E-02
         2        32        40         1         6             1.000E-02
         2        33        40         1         6             1.000E-02
         2        34        40         1         6             1.000E-02
         1        35        40         1         4             1.000E-02
         1        29        41         1         2             1.000E-02
         1        29        41         1         3             1.000E-02
         2        30        41         1         6             1.000E-02
         2        31        41         1         6             1.000E-02
         2        32        41         1         6             1.000E-02
         2        33        41         1         6             1.000E-02
         2        34        41         1         6             1.000E-02
         1        35        41         1         4             1.000E-02
         1        28        42         1         3             1.000E-02
         2        29        42         1         6             1.000E-02
         2        30        42         1         6             1.000E-02
         2        31        42         1         6             1.000E-02
         2        32        42         1         6             1.000E-02
         2        33        42         1         6             1.000E-02
         2        34        42         1         6             1.000E-02
         1        35        42         1         2             1.000E-02
         1        35        42         1         4             1.000E-02
         1        28        43         1         3             1.000E-02
         2        29        43         1         6             1.000E-02
         2        30        43         1         6             1.000E-02
         2        31        43         1         6             1.000E-02
         2        32        43         1         6             1.000E-02
         2        33        43         1         6             1.000E-02
         2        34        43         1         6             1.000E-02
         2        35        43         1         6             1.000E-02
         1        36        43         1         4             1.000E-02
         1        28        44         1         3             1.000E-02
         2        29        44         1         6             1.000E-02
         2        30        44         1         6             1.000E-02
         2        31        44         1         6             1.000E-02
         2        32        44         1         6             1.000E-02
         2        33        44         1         6             1.000E-02
         2        34        44         1         6             1.000E-02
         2        35        44         1         6             1.000E-02
         1        36        44         1         4             1.000E-02
         1        29        45         1         1             1.000E-02
         1        30        45         1         1             1.000E-02
         1        31        45         1         1             1.000E-02
         1        32        45         1         1             1.000E-02
         1        33        45         1         1             1.000E-02
         1        34        45         1         1             1.000E-02
         1        35        45         1         1             1.000E-02
         1        44        67         2         2             1.000E-02
         1        43        68         2         3             1.000E-02
         2        44        68         2         6             1.000E-02
         1        45        68         2         2             1.000E-02
         1        45        68         2         4             1.000E-02
         1        46        68         2         2             1.000E-02
         1        47        68         2         2             1.000E-02
         1        43        69         2         3             1.000E-02
         2        44        69         2         6             1.000E-02
         2        45        69         2         6             1.000E-02
         2        46        69         2         6             1.000E-02
         2        47        69         2         6             1.000E-02
         1        48        69         2         2             1.000E-02
         1        48        69         2         4             1.000E-02
         1        42        70         2         2             1.000E-02
         1        43        70         2         2             1.000E-02
         1        43        70         2         3             1.000E-02
         2        44        70         2         6             1.000E-02
         2        45        70         2         6             1.000E-02
         2        46        70         2         6             1.000E-02
         2        47        70         2         6             1.000E-02
         2        48        70         2         6             1.000E-02
         1        49        70         2         2             1.000E-02
         1        49        70         2         4             1.000E-02
         1        41        71         2         3             1.000E-02
         2        42        71         2         6             1.000E-02
         2        43        71         2         6             1.000E-02
         2        44        71         2         6             1.000E-02
         2        45        71         2         6             1.000E-02
         2        46        71         2         6             1.000E-02
         2        47        71         2         6             1.000E-02
         2        48        71         2         6             1.000E-02
         2        49        71         2         6             1.000E-02
         1        50        71         2         4             1.000E-02
         1        41        72         2         3             1.000E-02
         2        42        72         2         6             1.000E-02
         2        43        72         2         6             1.000E-02
         2        44        72         2         6             1.000E-02
         2        45        72         2         6             1.000E-02
         2        46        72         2         6             1.000E-02
         2        47        72         2         6             1.000E-02
         2        48        72         2         6             1.000E-02
         2        49        72         2         6             1.000E-02
         1        50        72         2         4             1.000E-02
         1        41        73         2         3             1.000E-02
         2        42        73         2         6             1.000E-02
         2        43        73         2         6             1.000E-02
         2        44        73         2         6             1.000E-02
         2        45        73         2         6             1.000E-02
         2        46        73         2         6             1.000E-02
         2        47        73         2         6             1.000E-02
         2        48        73         2         6             1.000E-02
         2        49        73         2         6             1.000E-02
         1        50        73         2         4             1.000E-02
         1        41        74         2         3             1.000E-02
         2        42        74         2         6             1.000E-02
         2        43        74         2         6             1.000E-02
         2        44        74         2         6             1.000E-02
         2        45        74         2         6             1.000E-02
         1        46        74         2         1             1.000E-02
         1        46        74         2         4             1.000E-02
         1        47        74         2         1             1.000E-02
         1        48        74         2         1             1.000E-02
         1        49        74         2         1             1.000E-02
         1        42        75         2         1             1.000E-02
         1        43        75         2         1             1.000E-02
         1        44        75         2         1             1.000E-02
         1        45        75         2         1             1.000E-02

     NUMBER OF LAKE-AQUIFER CELL INTERFACES =   133


 STAGE/VOLUME RELATION FOR LAKE  1

      STAGE        VOLUME        AREA

   2.01900E+03   0.00000E+00   8.10000E+03
   2.01927E+03   2.16000E+03   8.10000E+03
   2.01953E+03   4.32000E+03   8.10000E+03
   2.01980E+03   6.48000E+03   8.10000E+03
   2.02007E+03   1.08000E+04   1.62000E+04
   2.02033E+03   1.51200E+04   1.62000E+04
   2.02060E+03   1.94400E+04   1.62000E+04
   2.02087E+03   2.37600E+04   1.62000E+04
   2.02113E+03   2.80800E+04   1.62000E+04
   2.02140E+03   3.24000E+04   1.62000E+04
   2.02167E+03   3.67200E+04   1.62000E+04
   2.02193E+03   4.10400E+04   1.62000E+04
   2.02220E+03   5.18400E+04   4.05000E+04
   2.02247E+03   6.26400E+04   4.05000E+04
   2.02273E+03   7.34400E+04   4.05000E+04
   2.02300E+03   8.42400E+04   4.05000E+04
   2.02327E+03   9.50400E+04   4.05000E+04
   2.02353E+03   1.05840E+05   4.05000E+04
   2.02380E+03   1.16640E+05   4.05000E+04
   2.02407E+03   1.33920E+05   6.48000E+04
   2.02433E+03   1.51200E+05   6.48000E+04
   2.02460E+03   1.68480E+05   6.48000E+04
   2.02487E+03   1.85760E+05   6.48000E+04
   2.02513E+03   2.11680E+05   9.72000E+04
   2.02540E+03   2.37600E+05   9.72000E+04
   2.02567E+03   2.63520E+05   9.72000E+04
   2.02593E+03   2.89440E+05   9.72000E+04
   2.02620E+03   3.19680E+05   1.13400E+05
   2.02647E+03   3.49920E+05   1.13400E+05
   2.02673E+03   3.80160E+05   1.13400E+05
   2.02700E+03   4.10400E+05   1.13400E+05
   2.02727E+03   4.40640E+05   1.13400E+05
   2.02754E+03   4.70880E+05   1.13400E+05
   2.02780E+03   5.01120E+05   1.13400E+05
   2.02807E+03   5.33520E+05   1.21500E+05
   2.02834E+03   5.65920E+05   1.21500E+05
   2.02860E+03   5.98320E+05   1.21500E+05
   2.02887E+03   6.30720E+05   1.21500E+05
   2.02914E+03   6.63120E+05   1.21500E+05
   2.02940E+03   6.95520E+05   1.21500E+05
   2.02967E+03   7.27920E+05   1.21500E+05
   2.02994E+03   7.60320E+05   1.21500E+05
   2.03020E+03   7.99200E+05   1.45800E+05
   2.03047E+03   8.38080E+05   1.45800E+05
   2.03074E+03   8.76960E+05   1.45800E+05
   2.03100E+03   9.18000E+05   1.53900E+05
   2.03127E+03   9.59040E+05   1.53900E+05
   2.03154E+03   1.00008E+06   1.53900E+05
   2.03180E+03   1.04112E+06   1.53900E+05
   2.03207E+03   1.08432E+06   1.62000E+05
   2.03234E+03   1.12752E+06   1.62000E+05
   2.03260E+03   1.17072E+06   1.62000E+05
   2.03287E+03   1.21392E+06   1.62000E+05
   2.03314E+03   1.26360E+06   1.86300E+05
   2.03340E+03   1.31328E+06   1.86300E+05
   2.03367E+03   1.36296E+06   1.86300E+05
   2.03394E+03   1.41264E+06   1.86300E+05
   2.03420E+03   1.46232E+06   1.86300E+05
   2.03447E+03   1.51200E+06   1.86300E+05
   2.03474E+03   1.56168E+06   1.86300E+05
   2.03500E+03   1.61568E+06   2.02500E+05
   2.03527E+03   1.66968E+06   2.02500E+05
   2.03554E+03   1.72368E+06   2.02500E+05
   2.03580E+03   1.77768E+06   2.02500E+05
   2.03607E+03   1.83168E+06   2.02500E+05
   2.03634E+03   1.88568E+06   2.02500E+05
   2.03660E+03   1.93968E+06   2.02500E+05
   2.03687E+03   1.99368E+06   2.02500E+05
   2.03714E+03   2.04768E+06   2.02500E+05
   2.03740E+03   2.10168E+06   2.02500E+05
   2.03767E+03   2.15568E+06   2.02500E+05
   2.03794E+03   2.20968E+06   2.02500E+05
   2.03820E+03   2.26368E+06   2.02500E+05
   2.03847E+03   2.31768E+06   2.02500E+05
   2.03874E+03   2.37168E+06   2.02500E+05
   2.03900E+03   2.42568E+06   2.02500E+05
   2.03927E+03   2.47968E+06   2.02500E+05
   2.03954E+03   2.53368E+06   2.02500E+05
   2.03980E+03   2.58768E+06   2.02500E+05
   2.04007E+03   2.64600E+06   2.18700E+05
   2.04034E+03   2.70432E+06   2.18700E+05
   2.04060E+03   2.76264E+06   2.18700E+05
   2.04087E+03   2.82096E+06   2.18700E+05
   2.04114E+03   2.87928E+06   2.18700E+05
   2.04140E+03   2.93760E+06   2.18700E+05
   2.04167E+03   2.99592E+06   2.18700E+05
   2.04194E+03   3.05424E+06   2.18700E+05
   2.04220E+03   3.11472E+06   2.26800E+05
   2.04247E+03   3.17520E+06   2.26800E+05
   2.04274E+03   3.23568E+06   2.26800E+05
   2.04301E+03   3.29832E+06   2.34900E+05
   2.04327E+03   3.36096E+06   2.34900E+05
   2.04354E+03   3.42360E+06   2.34900E+05
   2.04381E+03   3.48624E+06   2.34900E+05
   2.04407E+03   3.54888E+06   2.34900E+05
   2.04434E+03   3.61152E+06   2.34900E+05
   2.04461E+03   3.67416E+06   2.34900E+05
   2.04487E+03   3.73680E+06   2.34900E+05
   2.04514E+03   3.81024E+06   2.75400E+05
   2.04541E+03   3.88368E+06   2.75400E+05
   2.04567E+03   3.95712E+06   2.75400E+05
   2.04594E+03   4.03056E+06   2.75400E+05
   2.04621E+03   4.10616E+06   2.83500E+05
   2.04647E+03   4.18176E+06   2.83500E+05
   2.04674E+03   4.25736E+06   2.83500E+05
   2.04701E+03   4.33512E+06   2.91600E+05
   2.04727E+03   4.41288E+06   2.91600E+05
   2.04754E+03   4.49064E+06   2.91600E+05
   2.04781E+03   4.56840E+06   2.91600E+05
   2.04807E+03   4.64832E+06   2.99700E+05
   2.04834E+03   4.72824E+06   2.99700E+05
   2.04861E+03   4.80816E+06   2.99700E+05
   2.04887E+03   4.88808E+06   2.99700E+05
   2.04914E+03   4.96800E+06   2.99700E+05
   2.04941E+03   5.04792E+06   2.99700E+05
   2.04967E+03   5.12784E+06   2.99700E+05
   2.04994E+03   5.20776E+06   2.99700E+05
   2.05021E+03   5.28768E+06   2.99700E+05
   2.05047E+03   5.36760E+06   2.99700E+05
   2.05074E+03   5.44752E+06   2.99700E+05
   2.05101E+03   5.52744E+06   2.99700E+05
   2.05127E+03   5.60736E+06   2.99700E+05
   2.05154E+03   5.68728E+06   2.99700E+05
   2.05181E+03   5.76720E+06   2.99700E+05
   2.05207E+03   5.84712E+06   2.99700E+05
   2.05234E+03   5.92704E+06   2.99700E+05
   2.05260E+03   6.00696E+06   2.99700E+05
   2.05287E+03   6.08688E+06   2.99700E+05
   2.05314E+03   6.16680E+06   2.99700E+05
   2.05340E+03   6.24672E+06   2.99700E+05
   2.05367E+03   6.32664E+06   2.99700E+05
   2.05394E+03   6.40656E+06   2.99700E+05
   2.05420E+03   6.48648E+06   2.99700E+05
   2.05447E+03   6.56640E+06   2.99700E+05
   2.05474E+03   6.64632E+06   2.99700E+05
   2.05500E+03   6.72624E+06   2.99700E+05
   2.05527E+03   6.80616E+06   2.99700E+05
   2.05554E+03   6.88608E+06   2.99700E+05
   2.05580E+03   6.96600E+06   2.99700E+05
   2.05607E+03   7.04592E+06   2.99700E+05
   2.05634E+03   7.12584E+06   2.99700E+05
   2.05660E+03   7.20576E+06   2.99700E+05
   2.05687E+03   7.28568E+06   2.99700E+05
   2.05714E+03   7.36560E+06   2.99700E+05
   2.05740E+03   7.44552E+06   2.99700E+05
   2.05767E+03   7.52544E+06   2.99700E+05
   2.05794E+03   7.60536E+06   2.99700E+05
   2.05820E+03   7.68528E+06   2.99700E+05
   2.05847E+03   7.76520E+06   2.99700E+05
   2.05874E+03   7.84512E+06   2.99700E+05
   2.05900E+03   7.92504E+06   2.99700E+05



 STAGE/VOLUME RELATION FOR LAKE  2

      STAGE        VOLUME        AREA

   1.94000E+03   0.00000E+00   8.10000E+03
   1.94027E+03   2.16000E+03   8.10000E+03
   1.94053E+03   4.32000E+03   8.10000E+03
   1.94080E+03   6.48000E+03   8.10000E+03
   1.94107E+03   1.08000E+04   1.62000E+04
   1.94133E+03   1.51200E+04   1.62000E+04
   1.94160E+03   1.94400E+04   1.62000E+04
   1.94187E+03   2.37600E+04   1.62000E+04
   1.94213E+03   3.24000E+04   3.24000E+04
   1.94240E+03   4.10400E+04   3.24000E+04
   1.94267E+03   4.96800E+04   3.24000E+04
   1.94293E+03   5.83200E+04   3.24000E+04
   1.94320E+03   7.12800E+04   4.86000E+04
   1.94347E+03   8.42400E+04   4.86000E+04
   1.94373E+03   9.72000E+04   4.86000E+04
   1.94400E+03   1.10160E+05   4.86000E+04
   1.94427E+03   1.25280E+05   5.67000E+04
   1.94453E+03   1.40400E+05   5.67000E+04
   1.94480E+03   1.55520E+05   5.67000E+04
   1.94507E+03   1.77120E+05   8.10000E+04
   1.94533E+03   1.98720E+05   8.10000E+04
   1.94560E+03   2.20320E+05   8.10000E+04
   1.94587E+03   2.41920E+05   8.10000E+04
   1.94613E+03   2.65680E+05   8.91000E+04
   1.94640E+03   2.89440E+05   8.91000E+04
   1.94667E+03   3.13200E+05   8.91000E+04
   1.94693E+03   3.36960E+05   8.91000E+04
   1.94720E+03   3.65040E+05   1.05300E+05
   1.94747E+03   3.93120E+05   1.05300E+05
   1.94773E+03   4.21200E+05   1.05300E+05
   1.94800E+03   4.53600E+05   1.21500E+05
   1.94827E+03   4.86000E+05   1.21500E+05
   1.94854E+03   5.18400E+05   1.21500E+05
   1.94880E+03   5.50800E+05   1.21500E+05
   1.94907E+03   5.85360E+05   1.29600E+05
   1.94934E+03   6.19920E+05   1.29600E+05
   1.94960E+03   6.54480E+05   1.29600E+05
   1.94987E+03   6.89040E+05   1.29600E+05
   1.95014E+03   7.25760E+05   1.37700E+05
   1.95040E+03   7.62480E+05   1.37700E+05
   1.95067E+03   7.99200E+05   1.37700E+05
   1.95094E+03   8.35920E+05   1.37700E+05
   1.95120E+03   8.79120E+05   1.62000E+05
   1.95147E+03   9.22320E+05   1.62000E+05
   1.95174E+03   9.65520E+05   1.62000E+05
   1.95200E+03   1.01736E+06   1.94400E+05
   1.95227E+03   1.06920E+06   1.94400E+05
   1.95254E+03   1.12104E+06   1.94400E+05
   1.95280E+03   1.17288E+06   1.94400E+05
   1.95307E+03   1.23120E+06   2.18700E+05
   1.95334E+03   1.28952E+06   2.18700E+05
   1.95360E+03   1.34784E+06   2.18700E+05
   1.95387E+03   1.40616E+06   2.18700E+05
   1.95414E+03   1.47312E+06   2.51100E+05
   1.95440E+03   1.54008E+06   2.51100E+05
   1.95467E+03   1.60704E+06   2.51100E+05
   1.95494E+03   1.67400E+06   2.51100E+05
   1.95520E+03   1.74312E+06   2.59200E+05
   1.95547E+03   1.81224E+06   2.59200E+05
   1.95574E+03   1.88136E+06   2.59200E+05
   1.95600E+03   1.95696E+06   2.83500E+05
   1.95627E+03   2.03256E+06   2.83500E+05
   1.95654E+03   2.10816E+06   2.83500E+05
   1.95680E+03   2.18376E+06   2.83500E+05
   1.95707E+03   2.26584E+06   3.07800E+05
   1.95734E+03   2.34792E+06   3.07800E+05
   1.95760E+03   2.43000E+06   3.07800E+05
   1.95787E+03   2.51208E+06   3.07800E+05
   1.95814E+03   2.59416E+06   3.07800E+05
   1.95840E+03   2.67624E+06   3.07800E+05
   1.95867E+03   2.75832E+06   3.07800E+05
   1.95894E+03   2.84040E+06   3.07800E+05
   1.95920E+03   2.92248E+06   3.07800E+05
   1.95947E+03   3.00456E+06   3.07800E+05
   1.95974E+03   3.08664E+06   3.07800E+05
   1.96000E+03   3.16872E+06   3.07800E+05
   1.96027E+03   3.25080E+06   3.07800E+05
   1.96054E+03   3.33288E+06   3.07800E+05
   1.96080E+03   3.41496E+06   3.07800E+05
   1.96107E+03   3.49704E+06   3.07800E+05
   1.96134E+03   3.57912E+06   3.07800E+05
   1.96160E+03   3.66120E+06   3.07800E+05
   1.96187E+03   3.74328E+06   3.07800E+05
   1.96214E+03   3.82536E+06   3.07800E+05
   1.96240E+03   3.90744E+06   3.07800E+05
   1.96267E+03   3.98952E+06   3.07800E+05
   1.96294E+03   4.07160E+06   3.07800E+05
   1.96320E+03   4.15368E+06   3.07800E+05
   1.96347E+03   4.23576E+06   3.07800E+05
   1.96374E+03   4.31784E+06   3.07800E+05
   1.96401E+03   4.39992E+06   3.07800E+05
   1.96427E+03   4.48200E+06   3.07800E+05
   1.96454E+03   4.56408E+06   3.07800E+05
   1.96481E+03   4.64616E+06   3.07800E+05
   1.96507E+03   4.72824E+06   3.07800E+05
   1.96534E+03   4.81032E+06   3.07800E+05
   1.96561E+03   4.89240E+06   3.07800E+05
   1.96587E+03   4.97448E+06   3.07800E+05
   1.96614E+03   5.05656E+06   3.07800E+05
   1.96641E+03   5.13864E+06   3.07800E+05
   1.96667E+03   5.22072E+06   3.07800E+05
   1.96694E+03   5.30280E+06   3.07800E+05
   1.96721E+03   5.38488E+06   3.07800E+05
   1.96747E+03   5.46696E+06   3.07800E+05
   1.96774E+03   5.54904E+06   3.07800E+05
   1.96801E+03   5.63112E+06   3.07800E+05
   1.96827E+03   5.71320E+06   3.07800E+05
   1.96854E+03   5.79528E+06   3.07800E+05
   1.96881E+03   5.87736E+06   3.07800E+05
   1.96907E+03   5.95944E+06   3.07800E+05
   1.96934E+03   6.04152E+06   3.07800E+05
   1.96961E+03   6.12360E+06   3.07800E+05
   1.96987E+03   6.20568E+06   3.07800E+05
   1.97014E+03   6.28776E+06   3.07800E+05
   1.97041E+03   6.36984E+06   3.07800E+05
   1.97067E+03   6.45192E+06   3.07800E+05
   1.97094E+03   6.53400E+06   3.07800E+05
   1.97121E+03   6.61608E+06   3.07800E+05
   1.97147E+03   6.69816E+06   3.07800E+05
   1.97174E+03   6.78024E+06   3.07800E+05
   1.97201E+03   6.86232E+06   3.07800E+05
   1.97227E+03   6.94440E+06   3.07800E+05
   1.97254E+03   7.02648E+06   3.07800E+05
   1.97281E+03   7.10856E+06   3.07800E+05
   1.97307E+03   7.19064E+06   3.07800E+05
   1.97334E+03   7.27272E+06   3.07800E+05
   1.97361E+03   7.35480E+06   3.07800E+05
   1.97387E+03   7.43688E+06   3.07800E+05
   1.97414E+03   7.51896E+06   3.07800E+05
   1.97441E+03   7.60104E+06   3.07800E+05
   1.97467E+03   7.68312E+06   3.07800E+05
   1.97494E+03   7.76520E+06   3.07800E+05
   1.97521E+03   7.84728E+06   3.07800E+05
   1.97547E+03   7.92936E+06   3.07800E+05
   1.97574E+03   8.01144E+06   3.07800E+05
   1.97601E+03   8.09352E+06   3.07800E+05
   1.97627E+03   8.17560E+06   3.07800E+05
   1.97654E+03   8.25768E+06   3.07800E+05
   1.97681E+03   8.33976E+06   3.07800E+05
   1.97707E+03   8.42184E+06   3.07800E+05
   1.97734E+03   8.50392E+06   3.07800E+05
   1.97761E+03   8.58600E+06   3.07800E+05
   1.97787E+03   8.66808E+06   3.07800E+05
   1.97814E+03   8.75016E+06   3.07800E+05
   1.97841E+03   8.83224E+06   3.07800E+05
   1.97867E+03   8.91432E+06   3.07800E+05
   1.97894E+03   8.99640E+06   3.07800E+05
   1.97921E+03   9.07848E+06   3.07800E+05
   1.97948E+03   9.16056E+06   3.07800E+05
   1.97974E+03   9.24264E+06   3.07800E+05
   1.98001E+03   9.32472E+06   3.07800E+05


 NUMBER OF CONNECTED LAKE SYSTEMS IN SIMULATION IS   0

 LAKE       PRECIP     EVAP     RUNOFF   WITHDRAW   BOTTOM     AREA
----------------------------------------------------------------------
   1     0.000E+00 1.506E-03 0.000E+00  0.000E+00 2.019E+03 2.997E+05
   2     0.000E+00 1.506E-03 0.000E+00  0.000E+00 1.940E+03 3.078E+05




         C               INTERFACE CONDUCTANCES BETWEEN LAKE AND AQUIFER CELLS
   L     O          (IF TYPE = 6, CONDUCTANCE (L^2/T) IS BETWEEN AQUIFER CELL AND OVERLYING LAKE CELL.)
   A     L  L  T    (IF TYPE = 1 TO 4, CONDUCTANCES ARE PER UNIT SATURATED THICKNESS (L/T).)
   Y  R  U  A  Y
   E  O  M  K  P                        LAKEBED      C O N D U C T A N C E S
   R  W  N  E  E     DELTA Y   DELTA X  LEAKANCE   LAKEBED   AQUIFER  COMBINED
 _______________________________________________________________________________
   1 32 37  1  2    9.00E+01  9.00E+01  1.00E-02  9.00E-01  0.00E+00  0.00E+00
   1 33 37  1  2    9.00E+01  9.00E+01  1.00E-02  9.00E-01  0.00E+00  0.00E+00
   1 34 37  1  2    9.00E+01  9.00E+01  1.00E-02  9.00E-01  0.00E+00  0.00E+00
   1 31 38  1  2    9.00E+01  9.00E+01  1.00E-02  9.00E-01  0.00E+00  0.00E+00
   1 31 38  1  3    9.00E+01  9.00E+01  1.00E-02  9.00E-01  0.00E+00  0.00E+00
   2 32 38  1  6    9.00E+01  9.00E+01  1.00E-02  8.10E+01  1.50E+01  1.27E+01
   2 33 38  1  6    9.00E+01  9.00E+01  1.00E-02  8.10E+01  9.03E+01  4.27E+01
   2 34 38  1  6    9.00E+01  9.00E+01  1.00E-02  8.10E+01  9.03E+01  4.27E+01
   1 35 38  1  4    9.00E+01  9.00E+01  1.00E-02  9.00E-01  0.00E+00  0.00E+00
   1 30 39  1  2    9.00E+01  9.00E+01  1.00E-02  9.00E-01  0.00E+00  0.00E+00
   1 30 39  1  3    9.00E+01  9.00E+01  1.00E-02  9.00E-01  0.00E+00  0.00E+00
   2 31 39  1  6    9.00E+01  9.00E+01  1.00E-02  8.10E+01  1.50E+01  1.27E+01
   2 32 39  1  6    9.00E+01  9.00E+01  1.00E-02  8.10E+01  9.03E+01  4.27E+01
   2 33 39  1  6    9.00E+01  9.00E+01  1.00E-02  8.10E+01  9.03E+01  4.27E+01
   2 34 39  1  6    9.00E+01  9.00E+01  1.00E-02  8.10E+01  9.03E+01  4.27E+01
   1 35 39  1  4    9.00E+01  9.00E+01  1.00E-02  9.00E-01  0.00E+00  0.00E+00
   1 29 40  1  3    9.00E+01  9.00E+01  1.00E-02  9.00E-01  0.00E+00  0.00E+00
   2 30 40  1  6    9.00E+01  9.00E+01  1.00E-02  8.10E+01  1.50E+01  1.27E+01
   2 31 40  1  6    9.00E+01  9.00E+01  1.00E-02  8.10E+01  1.50E+01  1.27E+01
   2 32 40  1  6    9.00E+01  9.00E+01  1.00E-02  8.10E+01  9.03E+01  4.27E+01
   2 33 40  1  6    9.00E+01  9.00E+01  1.00E-02  8.10E+01  9.03E+01  4.27E+01
   2 34 40  1  6    9.00E+01  9.00E+01  1.00E-02  8.10E+01  9.03E+01  4.27E+01
   1 35 40  1  4    9.00E+01  9.00E+01  1.00E-02  9.00E-01  0.00E+00  0.00E+00
   1 29 41  1  2    9.00E+01  9.00E+01  1.00E-02  9.00E-01  0.00E+00  0.00E+00
   1 29 41  1  3    9.00E+01  9.00E+01  1.00E-02  9.00E-01  0.00E+00  0.00E+00
   2 30 41  1  6    9.00E+01  9.00E+01  1.00E-02  8.10E+01  1.50E+01  1.27E+01
   2 31 41  1  6    9.00E+01  9.00E+01  1.00E-02  8.10E+01  1.50E+01  1.27E+01
   2 32 41  1  6    9.00E+01  9.00E+01  1.00E-02  8.10E+01  9.03E+01  4.27E+01
   2 33 41  1  6    9.00E+01  9.00E+01  1.00E-02  8.10E+01  9.03E+01  4.27E+01
   2 34 41  1  6    9.00E+01  9.00E+01  1.00E-02  8.10E+01  9.03E+01  4.27E+01
   1 35 41  1  4    9.00E+01  9.00E+01  1.00E-02  9.00E-01  0.00E+00  0.00E+00
   1 28 42  1  3    9.00E+01  9.00E+01  1.00E-02  9.00E-01  0.00E+00  0.00E+00
   2 29 42  1  6    9.00E+01  9.00E+01  1.00E-02  8.10E+01  1.50E+01  1.27E+01
   2 30 42  1  6    9.00E+01  9.00E+01  1.00E-02  8.10E+01  1.50E+01  1.27E+01
   2 31 42  1  6    9.00E+01  9.00E+01  1.00E-02  8.10E+01  1.50E+01  1.27E+01
   2 32 42  1  6    9.00E+01  9.00E+01  1.00E-02  8.10E+01  9.03E+01  4.27E+01
   2 33 42  1  6    9.00E+01  9.00E+01  1.00E-02  8.10E+01  9.03E+01  4.27E+01
   2 34 42  1  6    9.00E+01  9.00E+01  1.00E-02  8.10E+01  3.01E+01  2.19E+01
   1 35 42  1  2    9.00E+01  9.00E+01  1.00E-02  9.00E-01  0.00E+00  0.00E+00
   1 35 42  1  4    9.00E+01  9.00E+01  1.00E-02  9.00E-01  0.00E+00  0.00E+00
   1 28 43  1  3    9.00E+01  9.00E+01  1.00E-02  9.00E-01  0.00E+00  0.00E+00
   2 29 43  1  6    9.00E+01  9.00E+01  1.00E-02  8.10E+01  1.50E+01  1.27E+01
   2 30 43  1  6    9.00E+01  9.00E+01  1.00E-02  8.10E+01  1.50E+01  1.27E+01
   2 31 43  1  6    9.00E+01  9.00E+01  1.00E-02  8.10E+01  1.50E+01  1.27E+01
   2 32 43  1  6    9.00E+01  9.00E+01  1.00E-02  8.10E+01  9.03E+01  4.27E+01
   2 33 43  1  6    9.00E+01  9.00E+01  1.00E-02  8.10E+01  9.03E+01  4.27E+01
   2 34 43  1  6    9.00E+01  9.00E+01  1.00E-02  8.10E+01  3.01E+01  2.19E+01
   2 35 43  1  6    9.00E+01  9.00E+01  1.00E-02  8.10E+01  3.01E+01  2.19E+01
   1 36 43  1  4    9.00E+01  9.00E+01  1.00E-02  9.00E-01  0.00E+00  0.00E+00
   1 28 44  1  3    9.00E+01  9.00E+01  1.00E-02  9.00E-01  0.00E+00  0.00E+00
   2 29 44  1  6    9.00E+01  9.00E+01  1.00E-02  8.10E+01  1.50E+01  1.27E+01
   2 30 44  1  6    9.00E+01  9.00E+01  1.00E-02  8.10E+01  1.50E+01  1.27E+01
   2 31 44  1  6    9.00E+01  9.00E+01  1.00E-02  8.10E+01  3.01E+01  2.19E+01
   2 32 44  1  6    9.00E+01  9.00E+01  1.00E-02  8.10E+01  9.03E+01  4.27E+01
   2 33 44  1  6    9.00E+01  9.00E+01  1.00E-02  8.10E+01  9.03E+01  4.27E+01
   2 34 44  1  6    9.00E+01  9.00E+01  1.00E-02  8.10E+01  9.03E+01  4.27E+01
   2 35 44  1  6    9.00E+01  9.00E+01  1.00E-02  8.10E+01  3.01E+01  2.19E+01
   1 36 44  1  4    9.00E+01  9.00E+01  1.00E-02  9.00E-01  0.00E+00  0.00E+00
   1 29 45  1  1    9.00E+01  9.00E+01  1.00E-02  9.00E-01  0.00E+00  0.00E+00
   1 30 45  1  1    9.00E+01  9.00E+01  1.00E-02  9.00E-01  0.00E+00  0.00E+00
   1 31 45  1  1    9.00E+01  9.00E+01  1.00E-02  9.00E-01  0.00E+00  0.00E+00
   1 32 45  1  1    9.00E+01  9.00E+01  1.00E-02  9.00E-01  0.00E+00  0.00E+00
   1 33 45  1  1    9.00E+01  9.00E+01  1.00E-02  9.00E-01  0.00E+00  0.00E+00
   1 34 45  1  1    9.00E+01  9.00E+01  1.00E-02  9.00E-01  0.00E+00  0.00E+00
   1 35 45  1  1    9.00E+01  9.00E+01  1.00E-02  9.00E-01  0.00E+00  0.00E+00
   1 44 67  2  2    9.00E+01  9.00E+01  1.00E-02  9.00E-01  0.00E+00  0.00E+00
   1 43 68  2  3    9.00E+01  9.00E+01  1.00E-02  9.00E-01  0.00E+00  0.00E+00
   2 44 68  2  6    9.00E+01  9.00E+01  1.00E-02  8.10E+01  1.50E+01  1.27E+01
   1 45 68  2  2    9.00E+01  9.00E+01  1.00E-02  9.00E-01  0.00E+00  0.00E+00
   1 45 68  2  4    9.00E+01  9.00E+01  1.00E-02  9.00E-01  0.00E+00  0.00E+00
   1 46 68  2  2    9.00E+01  9.00E+01  1.00E-02  9.00E-01  0.00E+00  0.00E+00
   1 47 68  2  2    9.00E+01  9.00E+01  1.00E-02  9.00E-01  0.00E+00  0.00E+00
   1 43 69  2  3    9.00E+01  9.00E+01  1.00E-02  9.00E-01  0.00E+00  0.00E+00
   2 44 69  2  6    9.00E+01  9.00E+01  1.00E-02  8.10E+01  1.50E+01  1.27E+01
   2 45 69  2  6    9.00E+01  9.00E+01  1.00E-02  8.10E+01  1.50E+01  1.27E+01
   2 46 69  2  6    9.00E+01  9.00E+01  1.00E-02  8.10E+01  1.50E+01  1.27E+01
   2 47 69  2  6    9.00E+01  9.00E+01  1.00E-02  8.10E+01  1.50E+01  1.27E+01
   1 48 69  2  2    9.00E+01  9.00E+01  1.00E-02  9.00E-01  0.00E+00  0.00E+00
   1 48 69  2  4    9.00E+01  9.00E+01  1.00E-02  9.00E-01  0.00E+00  0.00E+00
   1 42 70  2  2    9.00E+01  9.00E+01  1.00E-02  9.00E-01  0.00E+00  0.00E+00
   1 43 70  2  2    9.00E+01  9.00E+01  1.00E-02  9.00E-01  0.00E+00  0.00E+00
   1 43 70  2  3    9.00E+01  9.00E+01  1.00E-02  9.00E-01  0.00E+00  0.00E+00
   2 44 70  2  6    9.00E+01  9.00E+01  1.00E-02  8.10E+01  3.01E+01  2.19E+01
   2 45 70  2  6    9.00E+01  9.00E+01  1.00E-02  8.10E+01  3.01E+01  2.19E+01
   2 46 70  2  6    9.00E+01  9.00E+01  1.00E-02  8.10E+01  3.01E+01  2.19E+01
   2 47 70  2  6    9.00E+01  9.00E+01  1.00E-02  8.10E+01  3.01E+01  2.19E+01
   2 48 70  2  6    9.00E+01  9.00E+01  1.00E-02  8.10E+01  3.01E+01  2.19E+01
   1 49 70  2  2    9.00E+01  9.00E+01  1.00E-02  9.00E-01  0.00E+00  0.00E+00
   1 49 70  2  4    9.00E+01  9.00E+01  1.00E-02  9.00E-01  0.00E+00  0.00E+00
   1 41 71  2  3    9.00E+01  9.00E+01  1.00E-02  9.00E-01  0.00E+00  0.00E+00
   2 42 71  2  6    9.00E+01  9.00E+01  1.00E-02  8.10E+01  9.03E+01  4.27E+01
   2 43 71  2  6    9.00E+01  9.00E+01  1.00E-02  8.10E+01  9.03E+01  4.27E+01
   2 44 71  2  6    9.00E+01  9.00E+01  1.00E-02  8.10E+01  3.01E+01  2.19E+01
   2 45 71  2  6    9.00E+01  9.00E+01  1.00E-02  8.10E+01  3.01E+01  2.19E+01
   2 46 71  2  6    9.00E+01  9.00E+01  1.00E-02  8.10E+01  3.01E+01  2.19E+01
   2 47 71  2  6    9.00E+01  9.00E+01  1.00E-02  8.10E+01  3.01E+01  2.19E+01
   2 48 71  2  6    9.00E+01  9.00E+01  1.00E-02  8.10E+01  9.03E+01  4.27E+01
   2 49 71  2  6    9.00E+01  9.00E+01  1.00E-02  8.10E+01  9.03E+01  4.27E+01
   1 50 71  2  4    9.00E+01  9.00E+01  1.00E-02  9.00E-01  0.00E+00  0.00E+00
   1 41 72  2  3    9.00E+01  9.00E+01  1.00E-02  9.00E-01  0.00E+00  0.00E+00
   2 42 72  2  6    9.00E+01  9.00E+01  1.00E-02  8.10E+01  9.03E+01  4.27E+01
   2 43 72  2  6    9.00E+01  9.00E+01  1.00E-02  8.10E+01  9.03E+01  4.27E+01
   2 44 72  2  6    9.00E+01  9.00E+01  1.00E-02  8.10E+01  9.03E+01  4.27E+01
   2 45 72  2  6    9.00E+01  9.00E+01  1.00E-02  8.10E+01  9.03E+01  4.27E+01
   2 46 72  2  6    9.00E+01  9.00E+01  1.00E-02  8.10E+01  9.03E+01  4.27E+01
   2 47 72  2  6    9.00E+01  9.00E+01  1.00E-02  8.10E+01  9.03E+01  4.27E+01
   2 48 72  2  6    9.00E+01  9.00E+01  1.00E-02  8.10E+01  9.03E+01  4.27E+01
   2 49 72  2  6    9.00E+01  9.00E+01  1.00E-02  8.10E+01  9.03E+01  4.27E+01
   1 50 72  2  4    9.00E+01  9.00E+01  1.00E-02  9.00E-01  0.00E+00  0.00E+00
   1 41 73  2  3    9.00E+01  9.00E+01  1.00E-02  9.00E-01  0.00E+00  0.00E+00
   2 42 73  2  6    9.00E+01  9.00E+01  1.00E-02  8.10E+01  9.03E+01  4.27E+01
   2 43 73  2  6    9.00E+01  9.00E+01  1.00E-02  8.10E+01  9.03E+01  4.27E+01
   2 44 73  2  6    9.00E+01  9.00E+01  1.00E-02  8.10E+01  9.03E+01  4.27E+01
   2 45 73  2  6    9.00E+01  9.00E+01  1.00E-02  8.10E+01  9.03E+01  4.27E+01
   2 46 73  2  6    9.00E+01  9.00E+01  1.00E-02  8.10E+01  3.01E+01  2.19E+01
   2 47 73  2  6    9.00E+01  9.00E+01  1.00E-02  8.10E+01  3.01E+01  2.19E+01
   2 48 73  2  6    9.00E+01  9.00E+01  1.00E-02  8.10E+01  3.01E+01  2.19E+01
   2 49 73  2  6    9.00E+01  9.00E+01  1.00E-02  8.10E+01  3.01E+01  2.19E+01
   1 50 73  2  4    9.00E+01  9.00E+01  1.00E-02  9.00E-01  0.00E+00  0.00E+00
   1 41 74  2  3    9.00E+01  9.00E+01  1.00E-02  9.00E-01  0.00E+00  0.00E+00
   2 42 74  2  6    9.00E+01  9.00E+01  1.00E-02  8.10E+01  9.03E+01  4.27E+01
   2 43 74  2  6    9.00E+01  9.00E+01  1.00E-02  8.10E+01  9.03E+01  4.27E+01
   2 44 74  2  6    9.00E+01  9.00E+01  1.00E-02  8.10E+01  3.01E+01  2.19E+01
   2 45 74  2  6    9.00E+01  9.00E+01  1.00E-02  8.10E+01  1.50E+01  1.27E+01
   1 46 74  2  1    9.00E+01  9.00E+01  1.00E-02  9.00E-01  0.00E+00  0.00E+00
   1 46 74  2  4    9.00E+01  9.00E+01  1.00E-02  9.00E-01  0.00E+00  0.00E+00
   1 47 74  2  1    9.00E+01  9.00E+01  1.00E-02  9.00E-01  0.00E+00  0.00E+00
   1 48 74  2  1    9.00E+01  9.00E+01  1.00E-02  9.00E-01  0.00E+00  0.00E+00
   1 49 74  2  1    9.00E+01  9.00E+01  1.00E-02  9.00E-01  0.00E+00  0.00E+00
   1 42 75  2  1    9.00E+01  9.00E+01  1.00E-02  9.00E-01  0.00E+00  0.00E+00
   1 43 75  2  1    9.00E+01  9.00E+01  1.00E-02  9.00E-01  0.00E+00  0.00E+00
   1 44 75  2  1    9.00E+01  9.00E+01  1.00E-02  9.00E-01  0.00E+00  0.00E+00
   1 45 75  2  1    9.00E+01  9.00E+01  1.00E-02  9.00E-01  0.00E+00  0.00E+00
 
      DEAD POOL STORAGE FOR LAKE    1 BELOW SEGMENT   18 IS EQUAL TO     0.2429382426E+05
 
 
      DEAD POOL STORAGE FOR LAKE    2 BELOW SEGMENT   19 IS EQUAL TO     0.1781481208E+05
 
      LAKE     INFLOWING STREAM SEGMENT
         1                  5
         2                 17   20

 MAXIMUM NUMBER OF STREAMS INFLOWING TO A LAKE IS    2

      LAKE     OUTFLOWING STREAM SEGMENT
         1                 18
         2                 19

 MAXIMUM NUMBER OF STREAMS OUTFLOWING FROM A LAKE IS    1

                                                   Max.-Head-Change                         Max.-Flux-Residual
  Residual-Control   Outer-Iter.   Inner-Iter.     Column Row Layer    Maximum-Head-Change  Column Row Layer    Maximum-Flux-Residual          L2-NORM 
          0                 1           8            66   40     3      -0.2289509411E+02      72   50    2        -0.2420730361E+05      0.2695434047E+05
          0                 2          22            33   21     2      -0.4645169231E+02      21   45    2        -0.2295909844E+05      0.5747198870E+05
          0                 3          19            40   34     2       0.2895935755E+03      72   50    2        -0.3523048392E+05      0.4663911027E+05
          0                 4          28            42   30     3       0.1482652818E+03      42   32    2         0.9996727500E+04      0.3527788572E+05
          0                 5          19            28   28     2      -0.1103353558E+03      42   32    2         0.2791548610E+04      0.8497073384E+04
          0                 6          36            29   26     2       0.6026119865E+03      49   25    2        -0.3408245456E+04      0.6910781507E+04
          0                 7          21            29   26     2      -0.3344532385E+03      29   26    2        -0.3563665282E+04      0.7947515429E+04
          0                 8          45            32   24     2       0.1365500902E+03      29   26    2        -0.1692858428E+04      0.5408624733E+04
          0                 9          22            26   26     2       0.9604544109E+02      73   55    2        -0.2900895287E+04      0.5773822825E+04
          0                10          48            28   25     2       0.5219353557E+03      73   55    2        -0.2012370547E+04      0.4957080936E+04
                                                   Max.-Head-Change                         Max.-Flux-Residual
  Residual-Control   Outer-Iter.   Inner-Iter.     Column Row Layer    Maximum-Head-Change  Column Row Layer    Maximum-Flux-Residual          L2-NORM 
          0                11          18            28   25     2      -0.1638443655E+03      28   25    2        -0.1719990023E+04      0.4949799915E+04
          0                12          21            28   25     2      -0.9878198452E+02      28   25    2        -0.1097083898E+04      0.4124715256E+04
          0                13          15            28   25     2      -0.6366023002E+02      42   32    2        -0.1018295361E+04      0.3706802593E+04
          0                14          15            28   25     2      -0.4343287271E+02      42   32    2        -0.9697192602E+03      0.3435183296E+04
          0                15          15            42   32     2      -0.1023171825E+02      42   32    2        -0.9206921813E+03      0.3214215086E+04
          0                16          15            42   32     2      -0.9678115216E+01      42   32    2        -0.8716167358E+03      0.3025692108E+04
          0                17          15            42   32     2      -0.9146617254E+01      42   32    2        -0.8241142314E+03      0.2848349677E+04
          0                18          15            42   32     2      -0.8643604323E+01      42   32    2        -0.7789041200E+03      0.2680550050E+04
          0                19          15            42   32     2      -0.8167334191E+01      42   32    2        -0.7359480940E+03      0.2530201311E+04
          0                20          15            42   32     2      -0.7722033274E+01      42   32    2        -0.6958611259E+03      0.2389103815E+04
                                                   Max.-Head-Change                         Max.-Flux-Residual
  Residual-Control   Outer-Iter.   Inner-Iter.     Column Row Layer    Maximum-Head-Change  Column Row Layer    Maximum-Flux-Residual          L2-NORM 
          0                21          14            42   32     2      -0.7297373116E+01      42   32    2        -0.6578348679E+03      0.2256193684E+04
          0                22          13            42   32     2      -0.6855189347E+01      42   32    2        -0.6195729941E+03      0.2122456912E+04
          0                23          13            42   32     2      -0.6435303341E+01      42   32    2        -0.5812262097E+03      0.1977304775E+04
          0                24          12            42   32     2      -0.6055970327E+01      42   32    2        -0.5469788114E+03      0.1861880616E+04
          0                25          12            42   32     2      -0.5699173052E+01      42   32    2        -0.5144241702E+03      0.1745017781E+04
          0                26          12            42   32     2      -0.5366644737E+01      42   32    2        -0.4843358571E+03      0.1641898078E+04
          0                27          12            42   32     2      -0.5030816677E+01      42   32    2        -0.4560884004E+03      0.1549481631E+04
          0                28          11            42   32     2      -0.4690219944E+01      42   32    2        -0.4256193976E+03      0.1437348175E+04
          0                29          12            42   32     2      -0.4368669039E+01      42   32    2        -0.3974468121E+03      0.1344129085E+04
          0                30          12            42   32     2      -0.4062031278E+01      42   32    2        -0.3689779910E+03      0.1247217363E+04
                                                   Max.-Head-Change                         Max.-Flux-Residual
  Residual-Control   Outer-Iter.   Inner-Iter.     Column Row Layer    Maximum-Head-Change  Column Row Layer    Maximum-Flux-Residual          L2-NORM 
          0                31          12            42   32     2      -0.3782707806E+01      42   32    2        -0.3427680110E+03      0.1154572188E+04
          0                32          11            42   32     2      -0.3547005776E+01      42   32    2        -0.3209038024E+03      0.1084066803E+04
          0                33          11            42   32     2      -0.3326483309E+01      42   32    2        -0.3004633275E+03      0.1013643315E+04
          0                34          11            42   32     2      -0.3121222145E+01      42   32    2        -0.2817259794E+03      0.9491181417E+03
          0                35          12            42   32     2      -0.2924993157E+01      42   32    2        -0.2638247666E+03      0.8883833013E+03
          0                36          11            42   32     2      -0.2809851839E+01      42   32    2        -0.2529851639E+03      0.8408916658E+03
          0                37          12            42   32     2      -0.2845812723E+01      42   32    2        -0.2554743994E+03      0.8229085160E+03
          0                38          12            42   32     2      -0.2898445111E+01      42   32    2        -0.2597578730E+03      0.7977042463E+03
          0                39          12            41   34     2      -0.3051912656E+01      42   32    2        -0.2560420130E+03      0.7664518095E+03
          0                40          11            42   32     2      -0.2844410953E+01      42   32    2        -0.2564149936E+03      0.7439216209E+03
                                                   Max.-Head-Change                         Max.-Flux-Residual
  Residual-Control   Outer-Iter.   Inner-Iter.     Column Row Layer    Maximum-Head-Change  Column Row Layer    Maximum-Flux-Residual          L2-NORM 
          0                41          11            43   32     2      -0.3078144016E+01      42   32    2        -0.2780610412E+03      0.7508917639E+03
          0                42          11            43   32     2      -0.3367370089E+01      42   32    2        -0.3079631291E+03      0.7724718685E+03
          0                43          11            43   32     2      -0.2923659100E+01      43   32    2        -0.2914630906E+03      0.6831809133E+03
          0                44          11            43   32     2      -0.1195324352E+01      63   38    2        -0.3356476477E+03      0.5058734043E+03
          0                45          10            44   34     2      -0.6498558978E+00      63   38    2        -0.2693406676E+03      0.3605503557E+03
          0                46          10            73   45     2      -0.4891487735E+00      63   38    2        -0.1793940141E+03      0.2426134238E+03
          0                47          10            73   45     2      -0.4638106382E+00      63   38    2        -0.1097878477E+03      0.1641873114E+03
          0                48           8            74   43     2      -0.8089370173E+00      63   38    2        -0.6336820291E+02      0.1211348669E+03
          0                49           8            74   43     2      -0.6290519259E+00      63   38    2        -0.3525202549E+02      0.9063753403E+02
          0                50           8            74   43     2      -0.5978110077E+00      72   46    2        -0.2563912357E+02      0.7984694140E+02
                                                   Max.-Head-Change                         Max.-Flux-Residual
  Residual-Control   Outer-Iter.   Inner-Iter.     Column Row Layer    Maximum-Head-Change  Column Row Layer    Maximum-Flux-Residual          L2-NORM 
          0                51           8            74   43     2      -0.4580152885E+00      72   46    2        -0.2207274756E+02      0.6437219777E+02
          0                52           8            73   45     2      -0.3110728984E+00      72   46    2        -0.2138212158E+02      0.6160910916E+02
          0                53           8            73   45     2      -0.2893583148E+00      72   46    2        -0.2011964065E+02      0.5715525129E+02
          0                54           8            73   45     2      -0.2617879643E+00      72   46    2        -0.1840729880E+02      0.5171880062E+02
          0                55           8            73   44     2      -0.2409719095E+00      72   46    2        -0.1699769673E+02      0.4565574051E+02
          0                56           8            72   44     2      -0.2240749300E+00      72   46    2        -0.1569330798E+02      0.4190014526E+02
          0                57           8            72   44     2      -0.2045275518E+00      72   46    2        -0.1440833458E+02      0.3823794468E+02
          0                58           7            72   44     2      -0.1859723496E+00      72   46    2        -0.1311541273E+02      0.3476568282E+02
          0                59           7            72   44     2      -0.1622219728E+00      72   46    2        -0.1160132148E+02      0.3027348175E+02
          0                60           7            72   44     2      -0.1405436025E+00      72   46    2        -0.1015240845E+02      0.2618168198E+02
                                                   Max.-Head-Change                         Max.-Flux-Residual
  Residual-Control   Outer-Iter.   Inner-Iter.     Column Row Layer    Maximum-Head-Change  Column Row Layer    Maximum-Flux-Residual          L2-NORM 
          0                61           7            72   44     2      -0.1281486086E+00      72   46    2        -0.9141643481E+01      0.2384973997E+02
          0                62           7            72   44     2      -0.1161182192E+00      72   46    2        -0.8266821844E+01      0.2161004818E+02
          0                63           7            72   44     2      -0.1050499614E+00      72   46    2        -0.7477357977E+01      0.1954876713E+02
          0                64           7            72   44     2      -0.9503692956E-01      72   46    2        -0.6764071239E+01      0.1768423897E+02
          0                65           7            72   44     2      -0.8588569736E-01      72   46    2        -0.6114214024E+01      0.1598081609E+02
          0                66           7            72   44     2      -0.7761413578E-01      72   46    2        -0.5525586837E+01      0.1444082684E+02
          0                67           6            72   44     2      -0.7013753294E-01      72   46    2        -0.4993390694E+01      0.1304980752E+02
          0                68           6            72   44     2      -0.6336923782E-01      72   46    2        -0.4511471101E+01      0.1178891843E+02
          0                69           6            73   44     2      -0.5314744835E-01      74   42    2        -0.2818833784E+01      0.9473651123E+01
          0                70           5            73   44     2      -0.4218728162E-01      74   42    2        -0.2245459545E+01      0.7503194845E+01
                                                   Max.-Head-Change                         Max.-Flux-Residual
  Residual-Control   Outer-Iter.   Inner-Iter.     Column Row Layer    Maximum-Head-Change  Column Row Layer    Maximum-Flux-Residual          L2-NORM 
          0                71           5            73   44     2      -0.3281175597E-01      72   42    2        -0.1748140926E+01      0.5850399936E+01
          0                72           5            73   44     2      -0.2540831769E-01      72   42    2        -0.1353985282E+01      0.4537658030E+01
          0                73           5            73   44     2      -0.1965032082E-01      72   42    2        -0.1047187584E+01      0.3512812075E+01
          0                74           4            74   45     2      -0.1522318328E-01      72   42    2        -0.8095601132E+00      0.2717385044E+01
          0                75           4            74   45     2      -0.1174824963E-01      72   43    2        -0.6253008030E+00      0.2099959984E+01
          0                76           4            74   45     2      -0.9075960715E-02      73   43    2        -0.4833329528E+00      0.1623525673E+01
          0                77           4            74   45     2      -0.7014511668E-02      73   43    2        -0.3736282806E+00      0.1255391008E+01
          0                78           3            73   44     2      -0.5420572164E-02      72   43    2        -0.2888773197E+00      0.9709232666E+00
          0                79           3            74   45     2      -0.4180762336E-02      74   42    2        -0.2235839515E+00      0.7483920433E+00
          0                80           3            74   45     2      -0.3236546927E-02      74   42    2        -0.1729881441E+00      0.5786224223E+00
                                                   Max.-Head-Change                         Max.-Flux-Residual
  Residual-Control   Outer-Iter.   Inner-Iter.     Column Row Layer    Maximum-Head-Change  Column Row Layer    Maximum-Flux-Residual          L2-NORM 
          0                81           3            74   45     2      -0.2505112811E-02      74   42    2        -0.1338879052E+00      0.4479114398E+00
          0                82           3            74   45     2      -0.1939295366E-02      74   42    2        -0.1036571127E+00      0.3469027228E+00
          0                83           3            74   45     2      -0.1501348925E-02      74   42    2        -0.8025337448E-01      0.2687034488E+00
          0                84           2            72   44     3      -0.1161962882E-02      74   42    2        -0.6216719737E-01      0.2082586542E+00
          0                85           2            74   45     2      -0.8882764540E-03      72   42    2        -0.4740583229E-01      0.1584880422E+00
          0                86           2            74   45     2      -0.6910175873E-03      73   44    2        -0.3675939842E-01      0.1229486917E+00
          0                87           1            74   45     2      -0.4839018031E-03      72   42    2        -0.2860710826E-01      0.9580976660E-01
          0                88           1            72   43     3      -0.3989254121E-03      73   43    2        -0.2055012634E-01      0.6587991220E-01
          0                89           1            72   43     3      -0.3136252312E-03      73   44    2        -0.1626992273E-01      0.5213272059E-01
          0                90           1            73   44     3      -0.2522380041E-03      73   44    2        -0.1307339818E-01      0.4201597393E-01
                                                   Max.-Head-Change                         Max.-Flux-Residual
  Residual-Control   Outer-Iter.   Inner-Iter.     Column Row Layer    Maximum-Head-Change  Column Row Layer    Maximum-Flux-Residual          L2-NORM 
          0                91           1            73   44     3      -0.2043207239E-03      73   44    2        -0.1059082887E-01      0.3409027964E-01
          0                92           1            73   44     3      -0.1657951085E-03      73   44    2        -0.8584627325E-02      0.2768839526E-01
          0                93           1            73   44     3      -0.1348930371E-03      73   44    2        -0.6995706051E-02      0.2260803270E-01
          0                94           1            73   44     3      -0.1100364023E-03      73   44    2        -0.5708668479E-02      0.1848757737E-01
          0                95           1            73   44     3      -0.8986636375E-04      73   44    2        -0.4665615685E-02      0.1514676047E-01

    ------------------------------------------------
       NWT REQUIRED           95 OUTER ITERATIONS 
       AND A TOTAL OF        969 INNER ITERATIONS.
    ------------------------------------------------

 OUTPUT CONTROL FOR STRESS PERIOD    1   TIME STEP    1
    PRINT BUDGET



 STREAM LISTING     PERIOD      1   STEP        1

 LAYER ROW COL. STREAM  RCH.   FLOW INTO    STREAM     FLOW OUT OF   OVRLND.    DIRECT     STREAM      STREAM      STREAM     STREAM  STREAMBED   FLOW TO   CHNG. UNSAT. 
                SEG.NO.  NO.   STRM. RCH.    LOSS       STRM. RCH.   RUNOFF     PRECIP       ET         HEAD        DEPTH      WIDTH  CONDCTNC.   WAT. TAB.

   2   18   62     1     1    0.0000E+00  0.0000E+00   0.0000E+00  0.000E+00  0.000E+00  0.000E+00  2.07300E+03  0.000E+00  3.000E+00  1.909E+03  0.000E+00  0.000E+00
   2   19   63     1     2    0.0000E+00  0.0000E+00   0.0000E+00  0.000E+00  0.000E+00  0.000E+00  2.06300E+03  0.000E+00  3.000E+00  1.909E+03  0.000E+00  0.000E+00
   2   20   64     1     3    0.0000E+00 -1.9337E+01   1.9337E+01  0.000E+00  0.000E+00  0.000E+00  2.05400E+03  7.614E-04  3.000E+00  1.630E+03  0.000E+00  0.000E+00
   2   21   64     1     4    1.9337E+01 -1.9243E+01   3.8580E+01  0.000E+00  0.000E+00  0.000E+00  2.05100E+03  1.810E-03  3.000E+00  1.630E+03  0.000E+00  0.000E+00
   2   22   65     1     5    3.8580E+01  1.8806E+01   1.9775E+01  0.000E+00  0.000E+00  0.000E+00  2.04800E+03  1.549E-03  3.000E+00  9.546E+02  0.000E+00  0.000E+00
   2   20   66     2     1    0.0000E+00  0.0000E+00   0.0000E+00  0.000E+00  0.000E+00  0.000E+00  2.05300E+03  0.000E+00  3.000E+00  1.909E+03  0.000E+00  0.000E+00
   2   21   65     2     2    0.0000E+00  0.0000E+00   0.0000E+00  0.000E+00  0.000E+00  0.000E+00  2.05100E+03  0.000E+00  3.000E+00  1.630E+03  0.000E+00  0.000E+00
   2   22   65     2     3    0.0000E+00  0.0000E+00   0.0000E+00  0.000E+00  0.000E+00  0.000E+00  2.04800E+03  0.000E+00  3.000E+00  6.750E+02  0.000E+00  0.000E+00
   2   22   65     3     1    1.9775E+01  1.2842E+01   6.9332E+00  0.000E+00  0.000E+00  0.000E+00  2.04800E+03  8.735E-04  3.000E+00  6.750E+02  0.000E+00  0.000E+00
   2   23   65     3     2    6.9332E+00 -1.2822E+01   1.9755E+01  0.000E+00  0.000E+00  0.000E+00  2.04500E+03  1.400E-03  3.000E+00  1.630E+03  0.000E+00  0.000E+00
   2   24   66     3     3    1.9755E+01  1.9755E+01   0.0000E+00  0.000E+00  0.000E+00  0.000E+00  2.04501E+03  1.389E-02  3.000E+00  1.909E+03  0.000E+00  0.000E+00
   2   25   67     3     4    0.0000E+00  0.0000E+00   0.0000E+00  0.000E+00  0.000E+00  0.000E+00  2.04500E+03  0.000E+00  3.000E+00  1.909E+03  0.000E+00  0.000E+00
   2   26   68     3     5    0.0000E+00  0.0000E+00   0.0000E+00  0.000E+00  0.000E+00  0.000E+00  2.04200E+03  0.000E+00  3.000E+00  1.630E+03  0.000E+00  0.000E+00
   2   27   68     3     6    0.0000E+00  0.0000E+00   0.0000E+00  0.000E+00  0.000E+00  0.000E+00  2.04100E+03  0.000E+00  3.000E+00  1.630E+03  0.000E+00  0.000E+00
   2   28   69     3     7    0.0000E+00  0.0000E+00   0.0000E+00  0.000E+00  0.000E+00  0.000E+00  2.03600E+03  0.000E+00  3.000E+00  1.630E+03  0.000E+00  0.000E+00
   2   29   69     3     8    0.0000E+00  0.0000E+00   0.0000E+00  0.000E+00  0.000E+00  0.000E+00  2.02900E+03  0.000E+00  3.000E+00  1.350E+03  0.000E+00  0.000E+00
   2   30   69     3     9    0.0000E+00  0.0000E+00   0.0000E+00  0.000E+00  0.000E+00  0.000E+00  2.02300E+03  0.000E+00  3.000E+00  1.630E+03  0.000E+00  0.000E+00
   2   31   70     3    10    0.0000E+00  0.0000E+00   0.0000E+00  0.000E+00  0.000E+00  0.000E+00  2.01100E+03  0.000E+00  3.000E+00  1.630E+03  0.000E+00  0.000E+00
   2   32   70     3    11    0.0000E+00  0.0000E+00   0.0000E+00  0.000E+00  0.000E+00  0.000E+00  2.00500E+03  0.000E+00  3.000E+00  1.350E+03  0.000E+00  0.000E+00
   2   33   70     3    12    0.0000E+00  0.0000E+00   0.0000E+00  0.000E+00  0.000E+00  0.000E+00  2.00300E+03  0.000E+00  3.000E+00  1.630E+03  0.000E+00  0.000E+00
   2   34   69     3    13    0.0000E+00  0.0000E+00   0.0000E+00  0.000E+00  0.000E+00  0.000E+00  1.98600E+03  0.000E+00  3.000E+00  1.630E+03  0.000E+00  0.000E+00
   2   35   69     3    14    0.0000E+00 -6.3025E+01   6.3025E+01  0.000E+00  0.000E+00  0.000E+00  1.97300E+03  1.274E-03  3.000E+00  1.350E+03  0.000E+00  0.000E+00
   2   36   69     3    15    6.3025E+01  6.3025E+01   0.0000E+00  0.000E+00  0.000E+00  0.000E+00  1.96700E+03  4.761E-04  3.000E+00  1.350E+03  0.000E+00  0.000E+00
   2   37   69     3    16    0.0000E+00  0.0000E+00   0.0000E+00  0.000E+00  0.000E+00  0.000E+00  1.95900E+03  0.000E+00  3.000E+00  1.350E+03  0.000E+00  0.000E+00
   2   38   69     3    17    0.0000E+00  0.0000E+00   0.0000E+00  0.000E+00  0.000E+00  0.000E+00  1.95300E+03  0.000E+00  3.000E+00  1.630E+03  0.000E+00  0.000E+00
   2   39   70     3    18    0.0000E+00  0.0000E+00   0.0000E+00  0.000E+00  0.000E+00  0.000E+00  1.94600E+03  0.000E+00  3.000E+00  9.546E+02  0.000E+00  0.000E+00
   2   25   49     4     1    0.0000E+00 -4.8463E+01   4.8463E+01  0.000E+00  0.000E+00  0.000E+00  2.03500E+03  1.172E-03  3.000E+00  1.909E+03  0.000E+00  0.000E+00
   2   26   50     4     2    4.8463E+01 -3.6873E+01   8.5336E+01  0.000E+00  0.000E+00  0.000E+00  2.02600E+03  2.338E-03  3.000E+00  1.909E+03  0.000E+00  0.000E+00
   2   27   51     4     3    8.5336E+01 -2.5599E+01   1.1094E+02  0.000E+00  0.000E+00  0.000E+00  2.01900E+03  3.058E-03  3.000E+00  1.630E+03  0.000E+00  0.000E+00
   2   28   51     4     4    1.1094E+02 -2.2176E+01   1.3311E+02  0.000E+00  0.000E+00  0.000E+00  2.01400E+03  3.682E-03  3.000E+00  1.630E+03  0.000E+00  0.000E+00
   2   29   52     4     5    1.3311E+02 -1.6856E+01   1.4997E+02  0.000E+00  0.000E+00  0.000E+00  2.00900E+03  4.024E-03  3.000E+00  1.630E+03  0.000E+00  0.000E+00
   2   30   52     4     6    1.4997E+02 -1.4654E+00   1.5143E+02  0.000E+00  0.000E+00  0.000E+00  2.00400E+03  3.949E-03  3.000E+00  1.350E+03  0.000E+00  0.000E+00
   2   31   52     4     7    1.5143E+02 -2.3872E+01   1.7530E+02  0.000E+00  0.000E+00  0.000E+00  1.99900E+03  4.613E-03  3.000E+00  1.350E+03  0.000E+00  0.000E+00
   2   32   52     4     8    1.7530E+02  5.5048E+01   1.2026E+02  0.000E+00  0.000E+00  0.000E+00  1.99700E+03  4.416E-03  3.000E+00  1.630E+03  0.000E+00  0.000E+00
   2   33   53     4     9    1.2026E+02  5.9494E+01   6.0763E+01  0.000E+00  0.000E+00  0.000E+00  1.99100E+03  3.227E-03  3.000E+00  1.909E+03  0.000E+00  0.000E+00
   2   34   54     4    10    6.0763E+01  6.0763E+01   0.0000E+00  0.000E+00  0.000E+00  0.000E+00  1.98700E+03  5.900E-04  3.000E+00  1.909E+03  6.076E+01  0.000E+00
   2   35   55     4    11    0.0000E+00  0.0000E+00   0.0000E+00  0.000E+00  0.000E+00  0.000E+00  1.98200E+03  0.000E+00  3.000E+00  1.630E+03  0.000E+00  0.000E+00
   2   36   55     4    12    0.0000E+00 -5.9472E+01   5.9472E+01  0.000E+00  0.000E+00  0.000E+00  1.97600E+03  1.348E-03  3.000E+00  6.750E+02  0.000E+00  0.000E+00
   2   35   37     5     1    1.6316E+03  0.0000E+00   1.6316E+03  0.000E+00  0.000E+00  0.000E+00  2.05401E+03  1.291E-02  3.000E+00  0.000E+00  0.000E+00  0.000E+00
   2   34   38     5     2    1.6316E+03  0.0000E+00   1.6316E+03  0.000E+00  0.000E+00  0.000E+00  2.04002E+03  1.589E-02  3.000E+00  0.000E+00  0.000E+00  0.000E+00
   2   33   39     5     3    1.6316E+03  0.0000E+00   1.6316E+03  0.000E+00  0.000E+00  0.000E+00  2.03202E+03  1.889E-02  3.000E+00  0.000E+00  0.000E+00  0.000E+00
   2   32   40     5     4    1.6316E+03  0.0000E+00   1.6316E+03  0.000E+00  0.000E+00  0.000E+00  2.03002E+03  1.865E-02  3.000E+00  0.000E+00  0.000E+00  0.000E+00
   2   32   41     5     5    1.6316E+03  0.0000E+00   1.6316E+03  0.000E+00  0.000E+00  0.000E+00  2.02602E+03  1.562E-02  3.000E+00  0.000E+00  0.000E+00  0.000E+00
   2   32   42     5     6    1.6316E+03  0.0000E+00   1.6316E+03  0.000E+00  0.000E+00  0.000E+00  2.02202E+03  1.836E-02  3.000E+00  0.000E+00  0.000E+00  0.000E+00
   2   32   43     5     7    1.6316E+03  0.0000E+00   1.6316E+03  0.000E+00  0.000E+00  0.000E+00  2.02002E+03  2.034E-02  3.000E+00  0.000E+00  0.000E+00  0.000E+00
   2   33   44     5     8    1.6316E+03  0.0000E+00   1.6316E+03  0.000E+00  0.000E+00  0.000E+00  2.01902E+03  2.036E-02  3.000E+00  0.000E+00  0.000E+00  0.000E+00
   2   34   47     6     1    2.7702E+03  2.2031E+01   2.7481E+03  0.000E+00  0.000E+00  0.000E+00  2.00702E+03  1.697E-02  3.000E+00  6.750E+02  0.000E+00  0.000E+00
   2   34   48     6     2    2.7481E+03 -7.4662E+01   2.8228E+03  0.000E+00  0.000E+00  0.000E+00  2.00102E+03  2.223E-02  3.000E+00  1.630E+03  0.000E+00  0.000E+00
   2   35   49     6     3    2.8228E+03 -2.0125E+02   3.0240E+03  0.000E+00  0.000E+00  0.000E+00  1.99402E+03  2.406E-02  3.000E+00  1.630E+03  0.000E+00  0.000E+00
   2   35   50     6     4    3.0240E+03 -1.1519E+02   3.1392E+03  0.000E+00  0.000E+00  0.000E+00  1.99003E+03  2.973E-02  3.000E+00  1.350E+03  0.000E+00  0.000E+00
   2   35   51     6     5    3.1392E+03  9.2229E+01   3.0470E+03  0.000E+00  0.000E+00  0.000E+00  1.98903E+03  2.985E-02  3.000E+00  1.630E+03  0.000E+00  0.000E+00
   2   36   52     6     6    3.0470E+03 -4.1668E+01   3.0887E+03  0.000E+00  0.000E+00  0.000E+00  1.98403E+03  2.630E-02  3.000E+00  1.630E+03  0.000E+00  0.000E+00
   2   36   53     6     7    3.0887E+03 -1.9730E+02   3.2860E+03  0.000E+00  0.000E+00  0.000E+00  1.98003E+03  3.432E-02  3.000E+00  1.630E+03  0.000E+00  0.000E+00
   2   37   54     6     8    3.2860E+03  1.6766E+01   3.2692E+03  0.000E+00  0.000E+00  0.000E+00  1.98004E+03  3.660E-02  3.000E+00  1.909E+03  0.000E+00  0.000E+00
   2   36   55     6     9    3.2692E+03 -5.8749E+01   3.3280E+03  0.000E+00  0.000E+00  0.000E+00  1.97603E+03  2.791E-02  3.000E+00  9.546E+02  0.000E+00  0.000E+00
   2   36   34     7     1    2.8520E+02 -3.0392E+01   3.1559E+02  0.000E+00  0.000E+00  0.000E+00  2.07700E+03  4.250E-03  3.000E+00  9.546E+02  0.000E+00  0.000E+00
   2   35   35     7     2    3.1559E+02 -5.4586E+01   3.7018E+02  0.000E+00  0.000E+00  0.000E+00  2.06701E+03  6.059E-03  3.000E+00  1.630E+03  0.000E+00  0.000E+00
   2   35   36     7     3    3.7018E+02  7.6409E+01   2.9377E+02  0.000E+00  0.000E+00  0.000E+00  2.06201E+03  5.863E-03  3.000E+00  1.350E+03  0.000E+00  0.000E+00
   2   35   37     7     4    2.9377E+02 -3.6019E+01   3.2979E+02  0.000E+00  0.000E+00  0.000E+00  2.05400E+03  4.309E-03  3.000E+00  6.750E+02  0.000E+00  0.000E+00
   2   52   49     8     1    0.0000E+00 -1.3447E+02   1.3447E+02  0.000E+00  0.000E+00  0.000E+00  2.12100E+03  2.227E-03  3.000E+00  1.909E+03  0.000E+00  0.000E+00
   2   51   48     8     2    1.3447E+02 -1.8163E+02   3.1610E+02  0.000E+00  0.000E+00  0.000E+00  2.11701E+03  7.342E-03  3.000E+00  1.909E+03  0.000E+00  0.000E+00
   2   50   47     8     3    3.1610E+02  2.3759E+02   7.8511E+01  0.000E+00  0.000E+00  0.000E+00  2.11701E+03  5.252E-03  3.000E+00  1.630E+03  0.000E+00  0.000E+00
   2   49   47     8     4    7.8511E+01 -2.0549E+02   2.8400E+02  0.000E+00  0.000E+00  0.000E+00  2.10900E+03  4.668E-03  3.000E+00  1.630E+03  0.000E+00  0.000E+00
   2   48   46     8     5    2.8400E+02  6.8936E+01   2.1506E+02  0.000E+00  0.000E+00  0.000E+00  2.10701E+03  7.444E-03  3.000E+00  1.630E+03  0.000E+00  0.000E+00
   2   47   46     8     6    2.1506E+02  2.1506E+02   0.0000E+00  0.000E+00  0.000E+00  0.000E+00  2.10500E+03  1.448E-03  3.000E+00  1.350E+03  0.000E+00  0.000E+00
   2   46   46     8     7    0.0000E+00  0.0000E+00   0.0000E+00  0.000E+00  0.000E+00  0.000E+00  2.10300E+03  0.000E+00  3.000E+00  1.350E+03  0.000E+00  0.000E+00
   2   45   46     8     8    0.0000E+00  0.0000E+00   0.0000E+00  0.000E+00  0.000E+00  0.000E+00  2.09900E+03  0.000E+00  3.000E+00  1.350E+03  0.000E+00  0.000E+00
   2   44   46     8     9    0.0000E+00  0.0000E+00   0.0000E+00  0.000E+00  0.000E+00  0.000E+00  2.09100E+03  0.000E+00  3.000E+00  1.350E+03  0.000E+00  0.000E+00
   2   43   46     8    10    0.0000E+00  0.0000E+00   0.0000E+00  0.000E+00  0.000E+00  0.000E+00  2.08000E+03  0.000E+00  3.000E+00  1.350E+03  0.000E+00  0.000E+00
   2   42   46     8    11    0.0000E+00  0.0000E+00   0.0000E+00  0.000E+00  0.000E+00  0.000E+00  2.07200E+03  0.000E+00  3.000E+00  1.630E+03  0.000E+00  0.000E+00
   2   41   45     8    12    0.0000E+00  0.0000E+00   0.0000E+00  0.000E+00  0.000E+00  0.000E+00  2.06000E+03  0.000E+00  3.000E+00  1.630E+03  0.000E+00  0.000E+00
   2   40   45     8    13    0.0000E+00  0.0000E+00   0.0000E+00  0.000E+00  0.000E+00  0.000E+00  2.05400E+03  0.000E+00  3.000E+00  1.350E+03  0.000E+00  0.000E+00
   2   39   45     8    14    0.0000E+00  0.0000E+00   0.0000E+00  0.000E+00  0.000E+00  0.000E+00  2.04600E+03  0.000E+00  3.000E+00  1.350E+03  0.000E+00  0.000E+00
   2   38   45     8    15    0.0000E+00  0.0000E+00   0.0000E+00  0.000E+00  0.000E+00  0.000E+00  2.03500E+03  0.000E+00  3.000E+00  1.350E+03  0.000E+00  0.000E+00
   2   37   45     8    16    0.0000E+00  0.0000E+00   0.0000E+00  0.000E+00  0.000E+00  0.000E+00  2.02700E+03  0.000E+00  3.000E+00  1.630E+03  0.000E+00  0.000E+00
   2   36   46     8    17    0.0000E+00  0.0000E+00   0.0000E+00  0.000E+00  0.000E+00  0.000E+00  2.02100E+03  0.000E+00  3.000E+00  1.630E+03  0.000E+00  0.000E+00
   2   35   46     8    18    0.0000E+00  0.0000E+00   0.0000E+00  0.000E+00  0.000E+00  0.000E+00  2.01400E+03  0.000E+00  3.000E+00  1.630E+03  0.000E+00  0.000E+00
   2   34   47     8    19    0.0000E+00  0.0000E+00   0.0000E+00  0.000E+00  0.000E+00  0.000E+00  2.00700E+03  0.000E+00  3.000E+00  9.546E+02  0.000E+00  0.000E+00
   2   37   26     9     1    0.0000E+00  0.0000E+00   0.0000E+00  0.000E+00  0.000E+00  0.000E+00  2.14700E+03  0.000E+00  3.000E+00  1.350E+03  0.000E+00  0.000E+00
   2   37   27     9     2    0.0000E+00  0.0000E+00   0.0000E+00  0.000E+00  0.000E+00  0.000E+00  2.13400E+03  0.000E+00  3.000E+00  1.350E+03  0.000E+00  0.000E+00
   2   37   28     9     3    0.0000E+00 -5.9932E+01   5.9932E+01  0.000E+00  0.000E+00  0.000E+00  2.12500E+03  1.308E-03  3.000E+00  1.630E+03  0.000E+00  0.000E+00
   2   36   29     9     4    5.9932E+01  5.9932E+01   0.0000E+00  0.000E+00  0.000E+00  0.000E+00  2.11500E+03  4.533E-04  3.000E+00  1.630E+03  0.000E+00  0.000E+00
   2   36   30     9     5    0.0000E+00  0.0000E+00   0.0000E+00  0.000E+00  0.000E+00  0.000E+00  2.10700E+03  0.000E+00  3.000E+00  1.350E+03  0.000E+00  0.000E+00
   2   36   31     9     6    0.0000E+00 -1.1063E+02   1.1063E+02  0.000E+00  0.000E+00  0.000E+00  2.09800E+03  1.880E-03  3.000E+00  1.350E+03  0.000E+00  0.000E+00
   2   36   32     9     7    1.1063E+02 -5.5038E+01   1.6567E+02  0.000E+00  0.000E+00  0.000E+00  2.09100E+03  3.389E-03  3.000E+00  1.350E+03  0.000E+00  0.000E+00
   2   36   33     9     8    1.6567E+02 -6.3886E+01   2.2956E+02  0.000E+00  0.000E+00  0.000E+00  2.08400E+03  4.200E-03  3.000E+00  1.350E+03  0.000E+00  0.000E+00
   2   36   34     9     9    2.2956E+02 -2.1915E+01   2.5147E+02  0.000E+00  0.000E+00  0.000E+00  2.07700E+03  3.621E-03  3.000E+00  6.750E+02  0.000E+00  0.000E+00
   2   58   37    10     1    0.0000E+00  0.0000E+00   0.0000E+00  0.000E+00  0.000E+00  0.000E+00  2.15000E+03  0.000E+00  3.000E+00  1.350E+03  0.000E+00  0.000E+00
   2   57   37    10     2    0.0000E+00 -1.1069E+01   1.1069E+01  0.000E+00  0.000E+00  0.000E+00  2.14700E+03  6.404E-04  3.000E+00  1.630E+03  0.000E+00  0.000E+00
   2   56   38    10     3    1.1069E+01  1.1069E+01   0.0000E+00  0.000E+00  0.000E+00  0.000E+00  2.14300E+03  2.026E-04  3.000E+00  1.630E+03  0.000E+00  0.000E+00
   2   55   38    10     4    0.0000E+00 -1.1450E+02   1.1450E+02  0.000E+00  0.000E+00  0.000E+00  2.13800E+03  2.363E-03  3.000E+00  1.350E+03  0.000E+00  0.000E+00
   2   54   38    10     5    1.1450E+02 -6.0867E+01   1.7537E+02  0.000E+00  0.000E+00  0.000E+00  2.13500E+03  4.497E-03  3.000E+00  1.350E+03  0.000E+00  0.000E+00
   2   53   38    10     6    1.7537E+02 -3.8996E+01   2.1437E+02  0.000E+00  0.000E+00  0.000E+00  2.13201E+03  5.371E-03  3.000E+00  1.350E+03  0.000E+00  0.000E+00
   2   52   38    10     7    2.1437E+02 -1.0611E+02   3.2047E+02  0.000E+00  0.000E+00  0.000E+00  2.12901E+03  7.760E-03  3.000E+00  1.630E+03  0.000E+00  0.000E+00
   2   51   39    10     8    3.2047E+02  6.9389E+01   2.5108E+02  0.000E+00  0.000E+00  0.000E+00  2.12801E+03  8.075E-03  3.000E+00  1.630E+03  0.000E+00  0.000E+00
   2   50   39    10     9    2.5108E+02 -3.3944E+01   2.8503E+02  0.000E+00  0.000E+00  0.000E+00  2.12501E+03  6.570E-03  3.000E+00  1.630E+03  0.000E+00  0.000E+00
   2   49   38    10    10    2.8503E+02 -1.0291E+02   3.8794E+02  0.000E+00  0.000E+00  0.000E+00  2.12101E+03  7.897E-03  3.000E+00  1.909E+03  0.000E+00  0.000E+00
   2   48   37    10    11    3.8794E+02  6.9041E+01   3.1890E+02  0.000E+00  0.000E+00  0.000E+00  2.11801E+03  6.918E-03  3.000E+00  1.909E+03  0.000E+00  0.000E+00
   2   47   36    10    12    3.1890E+02 -2.8544E+02   6.0434E+02  0.000E+00  0.000E+00  0.000E+00  2.10901E+03  7.744E-03  3.000E+00  1.630E+03  0.000E+00  0.000E+00
   2   46   36    10    13    6.0434E+02 -8.1275E+01   6.8561E+02  0.000E+00  0.000E+00  0.000E+00  2.10601E+03  1.052E-02  3.000E+00  1.350E+03  0.000E+00  0.000E+00
   2   45   36    10    14    6.8561E+02 -1.1493E+02   8.0054E+02  0.000E+00  0.000E+00  0.000E+00  2.10201E+03  1.145E-02  3.000E+00  1.350E+03  0.000E+00  0.000E+00
   2   44   36    10    15    8.0054E+02 -4.6614E+01   8.4716E+02  0.000E+00  0.000E+00  0.000E+00  2.09901E+03  1.276E-02  3.000E+00  1.350E+03  0.000E+00  0.000E+00
   2   43   36    10    16    8.4716E+02  3.1124E+01   8.1603E+02  0.000E+00  0.000E+00  0.000E+00  2.09601E+03  1.202E-02  3.000E+00  1.630E+03  0.000E+00  0.000E+00
   2   42   37    10    17    8.1603E+02  2.2292E+02   5.9312E+02  0.000E+00  0.000E+00  0.000E+00  2.09001E+03  9.155E-03  3.000E+00  1.630E+03  0.000E+00  0.000E+00
   2   41   37    10    18    5.9312E+02 -2.0838E+02   8.0150E+02  0.000E+00  0.000E+00  0.000E+00  2.08001E+03  8.599E-03  3.000E+00  1.350E+03  0.000E+00  0.000E+00
   2   40   37    10    19    8.0150E+02 -2.5343E+02   1.0549E+03  0.000E+00  0.000E+00  0.000E+00  2.07401E+03  1.284E-02  3.000E+00  1.630E+03  0.000E+00  0.000E+00
   2   39   38    10    20    1.0549E+03  4.0794E+01   1.0141E+03  0.000E+00  0.000E+00  0.000E+00  2.07101E+03  1.477E-02  3.000E+00  1.630E+03  0.000E+00  0.000E+00
   2   38   38    10    21    1.0141E+03  9.3902E+01   9.2024E+02  0.000E+00  0.000E+00  0.000E+00  2.06701E+03  1.275E-02  3.000E+00  1.630E+03  0.000E+00  0.000E+00
   2   37   37    10    22    9.2024E+02 -2.1213E+02   1.1324E+03  0.000E+00  0.000E+00  0.000E+00  2.06101E+03  1.321E-02  3.000E+00  1.630E+03  0.000E+00  0.000E+00
   2   36   37    10    23    1.1324E+03 -1.3813E+02   1.2705E+03  0.000E+00  0.000E+00  0.000E+00  2.05702E+03  1.527E-02  3.000E+00  1.350E+03  0.000E+00  0.000E+00
   2   35   37    10    24    1.2705E+03 -3.1310E+01   1.3018E+03  0.000E+00  0.000E+00  0.000E+00  2.05401E+03  1.128E-02  3.000E+00  6.750E+02  0.000E+00  0.000E+00
   2   36   55    11     1    3.3874E+03 -4.4724E+01   3.4322E+03  0.000E+00  0.000E+00  0.000E+00  1.97602E+03  2.320E-02  3.000E+00  6.750E+02  0.000E+00  0.000E+00
   2   36   56    11     2    3.4322E+03 -3.7293E+01   3.4694E+03  0.000E+00  0.000E+00  0.000E+00  1.97504E+03  3.924E-02  3.000E+00  1.630E+03  0.000E+00  0.000E+00
   2   37   57    11     3    3.4694E+03 -4.0355E+01   3.5098E+03  0.000E+00  0.000E+00  0.000E+00  1.97304E+03  3.951E-02  3.000E+00  1.630E+03  0.000E+00  0.000E+00
   2   37   58    11     4    3.5098E+03 -1.0792E+01   3.5206E+03  0.000E+00  0.000E+00  0.000E+00  1.97205E+03  5.214E-02  3.000E+00  1.350E+03  0.000E+00  0.000E+00
   2   37   59    11     5    3.5206E+03  1.0854E+02   3.4120E+03  0.000E+00  0.000E+00  0.000E+00  1.97204E+03  4.200E-02  3.000E+00  1.350E+03  0.000E+00  0.000E+00
   2   37   60    11     6    3.4120E+03  1.7838E+01   3.3942E+03  0.000E+00  0.000E+00  0.000E+00  1.97003E+03  3.339E-02  3.000E+00  1.630E+03  0.000E+00  0.000E+00
   2   38   61    11     7    3.3942E+03 -8.9878E+01   3.4841E+03  0.000E+00  0.000E+00  0.000E+00  1.96703E+03  3.037E-02  3.000E+00  1.630E+03  0.000E+00  0.000E+00
   2   38   62    11     8    3.4841E+03 -8.5349E+01   3.5694E+03  0.000E+00  0.000E+00  0.000E+00  1.96303E+03  2.800E-02  3.000E+00  6.750E+02  0.000E+00  0.000E+00
   2   51   11    12     1    0.0000E+00 -2.9949E+02   2.9949E+02  0.000E+00  0.000E+00  0.000E+00  2.38700E+03  3.446E-03  3.000E+00  1.909E+03  0.000E+00  0.000E+00
   2   50   12    12     2    2.9949E+02 -3.5714E+00   3.0306E+02  0.000E+00  0.000E+00  0.000E+00  2.37500E+03  4.998E-03  3.000E+00  1.630E+03  0.000E+00  0.000E+00
   2   49   12    12     3    3.0306E+02 -2.9059E+02   5.9365E+02  0.000E+00  0.000E+00  0.000E+00  2.36501E+03  6.630E-03  3.000E+00  1.630E+03  0.000E+00  0.000E+00
   2   48   13    12     4    5.9365E+02 -6.3349E+01   6.5700E+02  0.000E+00  0.000E+00  0.000E+00  2.35601E+03  8.690E-03  3.000E+00  1.630E+03  0.000E+00  0.000E+00
   2   48   14    12     5    6.5700E+02 -1.0556E+02   7.6257E+02  0.000E+00  0.000E+00  0.000E+00  2.35001E+03  9.196E-03  3.000E+00  1.630E+03  0.000E+00  0.000E+00
   2   47   15    12     6    7.6257E+02 -9.1472E+01   8.5404E+02  0.000E+00  0.000E+00  0.000E+00  2.34001E+03  1.014E-02  3.000E+00  1.630E+03  0.000E+00  0.000E+00
   2   47   16    12     7    8.5404E+02 -8.2782E+01   9.3682E+02  0.000E+00  0.000E+00  0.000E+00  2.33501E+03  1.183E-02  3.000E+00  1.630E+03  0.000E+00  0.000E+00
   2   46   17    12     8    9.3682E+02  1.1520E+02   8.2162E+02  0.000E+00  0.000E+00  0.000E+00  2.32901E+03  1.088E-02  3.000E+00  1.630E+03  0.000E+00  0.000E+00
   2   46   18    12     9    8.2162E+02  1.9504E+02   6.2658E+02  0.000E+00  0.000E+00  0.000E+00  2.32101E+03  7.889E-03  3.000E+00  1.350E+03  0.000E+00  0.000E+00
   2   46   19    12    10    6.2658E+02 -3.9351E+02   1.0201E+03  0.000E+00  0.000E+00  0.000E+00  2.30601E+03  9.686E-03  3.000E+00  1.350E+03  0.000E+00  0.000E+00
   2   46   20    12    11    1.0201E+03  7.8965E+02   2.3044E+02  0.000E+00  0.000E+00  0.000E+00  2.30601E+03  6.922E-03  3.000E+00  1.630E+03  0.000E+00  0.000E+00
   2   45   21    12    12    2.3044E+02 -2.5897E+02   4.8941E+02  0.000E+00  0.000E+00  0.000E+00  2.27400E+03  4.406E-03  3.000E+00  1.909E+03  0.000E+00  0.000E+00
   2   44   22    12    13    4.8941E+02 -1.1670E+02   6.0611E+02  0.000E+00  0.000E+00  0.000E+00  2.25001E+03  6.136E-03  3.000E+00  1.909E+03  0.000E+00  0.000E+00
   2   43   23    12    14    6.0611E+02  1.9531E+02   4.1080E+02  0.000E+00  0.000E+00  0.000E+00  2.23101E+03  5.910E-03  3.000E+00  1.909E+03  0.000E+00  0.000E+00
   2   42   24    12    15    4.1080E+02 -2.0723E+01   4.3153E+02  0.000E+00  0.000E+00  0.000E+00  2.20801E+03  5.513E-03  3.000E+00  1.630E+03  0.000E+00  0.000E+00
   2   42   25    12    16    4.3153E+02  4.0530E+01   3.9100E+02  0.000E+00  0.000E+00  0.000E+00  2.20001E+03  5.859E-03  3.000E+00  1.350E+03  0.000E+00  0.000E+00
   2   42   26    12    17    3.9100E+02  1.7099E+02   2.2000E+02  0.000E+00  0.000E+00  0.000E+00  2.18800E+03  4.340E-03  3.000E+00  1.350E+03  0.000E+00  0.000E+00
   2   42   27    12    18    2.2000E+02 -2.0363E+02   4.2363E+02  0.000E+00  0.000E+00  0.000E+00  2.17000E+03  4.524E-03  3.000E+00  1.350E+03  0.000E+00  0.000E+00
   2   42   28    12    19    4.2363E+02 -3.6412E+01   4.6004E+02  0.000E+00  0.000E+00  0.000E+00  2.15901E+03  5.850E-03  3.000E+00  1.630E+03  0.000E+00  0.000E+00
   2   41   29    12    20    4.6004E+02  2.0013E+02   2.5992E+02  0.000E+00  0.000E+00  0.000E+00  2.14201E+03  5.212E-03  3.000E+00  1.909E+03  0.000E+00  0.000E+00
   2   40   30    12    21    2.5992E+02  1.3068E+02   1.2923E+02  0.000E+00  0.000E+00  0.000E+00  2.12700E+03  3.792E-03  3.000E+00  1.909E+03  0.000E+00  0.000E+00
   2   39   31    12    22    1.2923E+02  1.1455E+02   1.4683E+01  0.000E+00  0.000E+00  0.000E+00  2.11500E+03  2.163E-03  3.000E+00  1.909E+03  1.146E+02  0.000E+00
   2   38   32    12    23    1.4683E+01  1.4683E+01   0.0000E+00  0.000E+00  0.000E+00  0.000E+00  2.10300E+03  1.831E-04  3.000E+00  1.909E+03  1.468E+01  0.000E+00
   2   37   33    12    24    0.0000E+00  0.0000E+00   0.0000E+00  0.000E+00  0.000E+00  0.000E+00  2.08900E+03  0.000E+00  3.000E+00  1.909E+03  0.000E+00  0.000E+00
   2   36   34    12    25    0.0000E+00 -3.3728E+01   3.3728E+01  0.000E+00  0.000E+00  0.000E+00  2.07700E+03  7.550E-04  3.000E+00  9.546E+02  0.000E+00  0.000E+00
   2   38   62    13     1    3.7147E+03 -8.9330E+01   3.8040E+03  0.000E+00  0.000E+00  0.000E+00  1.96302E+03  2.210E-02  3.000E+00  6.750E+02  0.000E+00  0.000E+00
   2   38   63    13     2    3.8040E+03  3.4657E+00   3.8005E+03  0.000E+00  0.000E+00  0.000E+00  1.96445E+03  1.449E+00  3.000E+00  1.350E+03  0.000E+00  0.000E+00
   2   38   64    13     3    3.8005E+03  4.1405E+01   3.7591E+03  0.000E+00  0.000E+00  0.000E+00  1.96444E+03  1.444E+00  3.000E+00  1.350E+03  0.000E+00  0.000E+00
   2   38   65    13     4    3.7591E+03  5.2580E+01   3.7066E+03  0.000E+00  0.000E+00  0.000E+00  1.96304E+03  3.888E-02  3.000E+00  6.750E+02  0.000E+00  0.000E+00
   2   46   61    14     1    0.0000E+00  0.0000E+00   0.0000E+00  0.000E+00  0.000E+00  0.000E+00  2.01700E+03  0.000E+00  3.000E+00  1.350E+03  0.000E+00  0.000E+00
   2   45   61    14     2    0.0000E+00  0.0000E+00   0.0000E+00  0.000E+00  0.000E+00  0.000E+00  2.01000E+03  0.000E+00  3.000E+00  1.350E+03  0.000E+00  0.000E+00
   2   44   61    14     3    0.0000E+00  0.0000E+00   0.0000E+00  0.000E+00  0.000E+00  0.000E+00  2.00600E+03  0.000E+00  3.000E+00  1.350E+03  0.000E+00  0.000E+00
   2   43   61    14     4    0.0000E+00  0.0000E+00   0.0000E+00  0.000E+00  0.000E+00  0.000E+00  1.99900E+03  0.000E+00  3.000E+00  1.350E+03  0.000E+00  0.000E+00
   2   42   61    14     5    0.0000E+00  0.0000E+00   0.0000E+00  0.000E+00  0.000E+00  0.000E+00  1.99300E+03  0.000E+00  3.000E+00  1.350E+03  0.000E+00  0.000E+00
   2   41   61    14     6    0.0000E+00  0.0000E+00   0.0000E+00  0.000E+00  0.000E+00  0.000E+00  1.98500E+03  0.000E+00  3.000E+00  1.350E+03  0.000E+00  0.000E+00
   2   40   61    14     7    0.0000E+00  0.0000E+00   0.0000E+00  0.000E+00  0.000E+00  0.000E+00  1.97800E+03  0.000E+00  3.000E+00  1.350E+03  0.000E+00  0.000E+00
   2   39   61    14     8    0.0000E+00  0.0000E+00   0.0000E+00  0.000E+00  0.000E+00  0.000E+00  1.97300E+03  0.000E+00  3.000E+00  1.630E+03  0.000E+00  0.000E+00
   2   38   62    14     9    0.0000E+00 -1.4524E+02   1.4524E+02  0.000E+00  0.000E+00  0.000E+00  1.96300E+03  2.297E-03  3.000E+00  9.546E+02  0.000E+00  0.000E+00
   2   39   70    15     1    3.7472E+03  1.5176E+01   3.7321E+03  0.000E+00  0.000E+00  0.000E+00  1.94602E+03  2.141E-02  3.000E+00  6.750E+02  0.000E+00  0.000E+00
   2   40   75    16     1    5.2532E+03 -1.4176E+01   5.2674E+03  0.000E+00  0.000E+00  0.000E+00  1.93403E+03  3.328E-02  3.000E+00  6.750E+02  0.000E+00  0.000E+00
   2   40   76    16     2    5.2674E+03  0.0000E+00   5.2674E+03  0.000E+00  0.000E+00  0.000E+00  1.93305E+03  4.780E-02  3.000E+00  0.000E+00  0.000E+00  0.000E+00
   2   55   73    17     1    0.0000E+00  0.0000E+00   0.0000E+00  0.000E+00  0.000E+00  0.000E+00  2.04100E+03  0.000E+00  3.000E+00  1.350E+03  0.000E+00  0.000E+00
   2   54   73    17     2    0.0000E+00  0.0000E+00   0.0000E+00  0.000E+00  0.000E+00  0.000E+00  2.02900E+03  0.000E+00  3.000E+00  1.350E+03  0.000E+00  0.000E+00
   2   53   73    17     3    0.0000E+00  0.0000E+00   0.0000E+00  0.000E+00  0.000E+00  0.000E+00  2.01700E+03  0.000E+00  3.000E+00  1.350E+03  0.000E+00  0.000E+00
   2   52   73    17     4    0.0000E+00  0.0000E+00   0.0000E+00  0.000E+00  0.000E+00  0.000E+00  2.01000E+03  0.000E+00  3.000E+00  1.630E+03  0.000E+00  0.000E+00
   2   51   72    17     5    0.0000E+00  0.0000E+00   0.0000E+00  0.000E+00  0.000E+00  0.000E+00  1.99800E+03  0.000E+00  3.000E+00  1.630E+03  0.000E+00  0.000E+00
   2   50   72    17     6    0.0000E+00  0.0000E+00   0.0000E+00  0.000E+00  0.000E+00  0.000E+00  1.97500E+03  0.000E+00  3.000E+00  1.350E+03  0.000E+00  0.000E+00
   2   49   72    17     7    0.0000E+00  0.0000E+00   0.0000E+00  0.000E+00  0.000E+00  0.000E+00  1.95737E+03  1.368E+00  3.000E+00  0.000E+00  0.000E+00  0.000E+00
   2   48   72    17     8    0.0000E+00  0.0000E+00   0.0000E+00  0.000E+00  0.000E+00  0.000E+00  1.95277E+03  7.738E-01  3.000E+00  0.000E+00  0.000E+00  0.000E+00
   2   47   72    17     9    0.0000E+00  0.0000E+00   0.0000E+00  0.000E+00  0.000E+00  0.000E+00  1.95041E+03  4.079E-01  3.000E+00  0.000E+00  0.000E+00  0.000E+00
   2   46   72    17    10    0.0000E+00  0.0000E+00   0.0000E+00  0.000E+00  0.000E+00  0.000E+00  1.94835E+03  3.481E-01  3.000E+00  0.000E+00  0.000E+00  0.000E+00
   2   45   72    17    11    0.0000E+00  0.0000E+00   0.0000E+00  0.000E+00  0.000E+00  0.000E+00  1.94506E+03  1.065E+00  3.000E+00  0.000E+00  0.000E+00  0.000E+00
   2   44   73    17    12    0.0000E+00  0.0000E+00   0.0000E+00  0.000E+00  0.000E+00  0.000E+00  1.94339E+03  1.393E+00  3.000E+00  0.000E+00  0.000E+00  0.000E+00
   2   43   73    17    13    0.0000E+00  0.0000E+00   0.0000E+00  0.000E+00  0.000E+00  0.000E+00  1.94323E+03  1.227E+00  3.000E+00  0.000E+00  0.000E+00  0.000E+00
   2   42   73    17    14    0.0000E+00  0.0000E+00   0.0000E+00  0.000E+00  0.000E+00  0.000E+00  1.94217E+03  1.170E+00  3.000E+00  0.000E+00  0.000E+00  0.000E+00
   2   34   45    18     1    2.7385E+03 -3.6288E+01   2.7748E+03  0.000E+00  0.000E+00  0.000E+00  2.01793E+03  2.555E-02  3.000E+00  1.630E+03  0.000E+00  0.000E+00
   2   34   46    18     2    2.7748E+03 -1.8378E+01   2.7932E+03  0.000E+00  0.000E+00  0.000E+00  2.01102E+03  2.345E-02  3.000E+00  1.350E+03  0.000E+00  0.000E+00
   2   34   47    18     3    2.7932E+03  2.3029E+01   2.7702E+03  0.000E+00  0.000E+00  0.000E+00  2.00702E+03  1.845E-02  3.000E+00  6.750E+02  0.000E+00  0.000E+00
   2   41   74    19     1    1.0001E+03 -2.2819E+02   1.2283E+03  0.000E+00  0.000E+00  0.000E+00  1.93801E+03  1.455E-02  3.000E+00  1.909E+03  0.000E+00  0.000E+00
   2   40   75    19     2    1.2283E+03 -3.6959E+01   1.2652E+03  0.000E+00  0.000E+00  0.000E+00  1.93402E+03  1.557E-02  3.000E+00  9.546E+02  0.000E+00  0.000E+00
   2   39   66    20     1    0.0000E+00  0.0000E+00   0.0000E+00  0.000E+00  0.000E+00  0.000E+00  1.96250E+03  0.000E+00  1.500E+00  8.148E+02  0.000E+00  0.000E+00
   2   39   67    20     2    0.0000E+00  0.0000E+00   0.0000E+00  0.000E+00  0.000E+00  0.000E+00  1.96225E+03  0.000E+00  1.500E+00  6.750E+02  0.000E+00  0.000E+00
   2   40   68    20     3    0.0000E+00  0.0000E+00   0.0000E+00  0.000E+00  0.000E+00  0.000E+00  1.96200E+03  0.000E+00  1.500E+00  9.546E+02  0.000E+00  0.000E+00
   2   41   69    20     4    0.0000E+00  0.0000E+00   0.0000E+00  0.000E+00  0.000E+00  0.000E+00  1.96175E+03  0.000E+00  1.500E+00  8.148E+02  0.000E+00  0.000E+00
   2   42   69    20     5    0.0000E+00  0.0000E+00   0.0000E+00  0.000E+00  0.000E+00  0.000E+00  1.96150E+03  0.000E+00  1.500E+00  8.148E+02  0.000E+00  0.000E+00
   2   43   70    20     6    0.0000E+00  0.0000E+00   0.0000E+00  0.000E+00  0.000E+00  0.000E+00  1.96125E+03  0.000E+00  1.500E+00  8.148E+02  0.000E+00  0.000E+00
   2   38   66    21     1    3.7066E+03 -1.6934E+01   3.7235E+03  0.000E+00  0.000E+00  0.000E+00  1.96003E+03  3.326E-02  3.000E+00  1.350E+03  0.000E+00  0.000E+00
   2   38   67    21     2    3.7235E+03  6.9847E+01   3.6536E+03  0.000E+00  0.000E+00  0.000E+00  1.95803E+03  3.168E-02  3.000E+00  1.630E+03  0.000E+00  0.000E+00
   2   39   68    21     3    3.6536E+03  4.3027E+01   3.6106E+03  0.000E+00  0.000E+00  0.000E+00  1.95303E+03  2.820E-02  3.000E+00  1.630E+03  0.000E+00  0.000E+00
   2   39   69    21     4    3.6106E+03 -1.5474E+02   3.7654E+03  0.000E+00  0.000E+00  0.000E+00  1.94803E+03  2.994E-02  3.000E+00  1.350E+03  0.000E+00  0.000E+00
   2   39   70    21     5    3.7654E+03  1.8104E+01   3.7472E+03  0.000E+00  0.000E+00  0.000E+00  1.94603E+03  2.575E-02  3.000E+00  6.750E+02  0.000E+00  0.000E+00
   2   38   71    22     1    0.0000E+00 -5.9325E+01   5.9325E+01  0.000E+00  0.000E+00  0.000E+00  1.94550E+03  3.144E-03  3.000E+00  3.259E+02  0.000E+00  0.000E+00
   2   38   72    22     2    5.9325E+01 -3.9994E+01   9.9319E+01  0.000E+00  0.000E+00  0.000E+00  1.94501E+03  5.673E-03  3.000E+00  3.259E+02  0.000E+00  0.000E+00
   2   39   73    22     3    9.9319E+01  9.7776E+01   1.5433E+00  0.000E+00  0.000E+00  0.000E+00  1.94450E+03  4.323E-03  3.000E+00  3.259E+02  9.778E+01  0.000E+00
   2   39   74    22     4    1.5433E+00  1.5433E+00   0.0000E+00  0.000E+00  0.000E+00  0.000E+00  1.94400E+03  1.135E-04  3.000E+00  2.700E+02  1.543E+00  0.000E+00
   2   39   75    22     5    0.0000E+00  0.0000E+00   0.0000E+00  0.000E+00  0.000E+00  0.000E+00  1.94350E+03  0.000E+00  3.000E+00  2.700E+02  0.000E+00  0.000E+00
   2   39   76    22     6    0.0000E+00  0.0000E+00   0.0000E+00  0.000E+00  0.000E+00  0.000E+00  1.94300E+03  0.000E+00  3.000E+00  0.000E+00  0.000E+00  0.000E+00
   2   39   71    23     1    3.7321E+03 -1.2560E+02   3.8577E+03  0.000E+00  0.000E+00  0.000E+00  1.94204E+03  3.564E-02  3.000E+00  1.630E+03  0.000E+00  0.000E+00
   2   40   72    23     2    3.8577E+03 -1.4547E+01   3.8722E+03  0.000E+00  0.000E+00  0.000E+00  1.94104E+03  3.853E-02  3.000E+00  1.630E+03  0.000E+00  0.000E+00
   2   40   73    23     3    3.8722E+03 -9.3171E+01   3.9654E+03  0.000E+00  0.000E+00  0.000E+00  1.93803E+03  3.434E-02  3.000E+00  1.350E+03  0.000E+00  0.000E+00
   2   40   74    23     4    3.9654E+03 -8.0520E+00   3.9734E+03  0.000E+00  0.000E+00  0.000E+00  1.93604E+03  3.700E-02  3.000E+00  1.350E+03  0.000E+00  0.000E+00
   2   40   75    23     5    3.9734E+03 -1.4488E+01   3.9879E+03  0.000E+00  0.000E+00  0.000E+00  1.93403E+03  3.282E-02  3.000E+00  6.750E+02  0.000E+00  0.000E+00



1
  VOLUMETRIC BUDGET FOR UNSATURATED ZONE BENEATH STREAMS AT END OF TIME STEP     1 STRESS PERIOD   1
  ------------------------------------------------------------------------------------------------

    CUMULATIVE VOLUMES             L**3    RATES FOR THIS TIME STEP         L**3/T
    ------------------                     ------------------------


          STREAM LOSS =          289.3166            STREAM LOSS =          289.3166
    CHANGE IN STORAGE =            0.0000      CHANGE IN STORAGE =            0.0000
       RECHARGE TO GW =          289.3166         RECHARGE TO GW =          289.3166

             TOTAL IN =          289.3166               TOTAL IN =          289.3166

            TOTAL OUT =          289.3166              TOTAL OUT =          289.3166

             IN - OUT =            0.0000               IN - OUT =            0.0000

  PERCENT DISCREPANCY =            0.00      PERCENT DISCREPANCY =             0.00



 ***WARNING***NUZTOP IS 3 AND ALL LAYERS  IN ROW           39  AND COLUMN 
          76  ARE INACTIVE.
 UNSATURATED FLOW WILL NOT BE ADDED TO ANY LAYER-- SOME WATER MAY FLOW PAST
  LOWEST LAYER
 ***WARNING***NUZTOP IS 3 AND ALL LAYERS  IN ROW           40  AND COLUMN 
          76  ARE INACTIVE.
 UNSATURATED FLOW WILL NOT BE ADDED TO ANY LAYER-- SOME WATER MAY FLOW PAST
  LOWEST LAYER


UNSATURATED ZONE PACKAGE VOLUMETRIC BUDGET FOR  TIME STEP     1 STRESS PERIOD    1
  ------------------------------------------------------------------------------



     CUMULATIVE VOLUMES      L**3       RATES FOR THIS TIME STEP      L**3/T
     ------------------                 ------------------------

           IN:                                      IN:
           ---                                      ---
        INFILTRATION =       26039.6903          INFILTRATION =       26039.6903

          OUT:                                     OUT:
          ----                                     ----
              UZF ET =       0.0000E+00                UZF ET =       0.0000E+00
        UZF RECHARGE =       26039.6903          UZF RECHARGE =       26039.6903

            IN - OUT =       0.0000E+00              IN - OUT =       0.0000E+00

          STORAGE:                                 STORAGE:
          --------                                 --------
      STORAGE CHANGE =       0.0000E+00        STORAGE CHANGE =       0.0000E+00

 PERCENT DISCREPANCY IS DIFFERENCE BETWEEN IN-OUT MINUS CHANGE IN STORAGE
 DIVIDED BY THE AVERAGE OF IN AND OUT TIMES 100

 PERCENT DISCREPANCY =           0.00     PERCENT DISCREPANCY =           0.00






1
  VOLUMETRIC BUDGET FOR ENTIRE MODEL AT END OF TIME STEP    1, STRESS PERIOD   1
  ------------------------------------------------------------------------------

     CUMULATIVE VOLUMES      L**3       RATES FOR THIS TIME STEP      L**3/T
     ------------------                 ------------------------

           IN:                                      IN:
           ---                                      ---
             STORAGE     =           0.0000               STORAGE     =           0.0000
       CONSTANT HEAD     =           5.3001         CONSTANT HEAD     =           5.3001
      STREAM LEAKAGE     =        4076.0276        STREAM LEAKAGE     =        4076.0276
       LAKE  SEEPAGE     =         352.1833         LAKE  SEEPAGE     =         352.1833
        UZF RECHARGE     =       26053.0605          UZF RECHARGE     =       26053.0605
               GW ET     =           0.0000                 GW ET     =           0.0000
     SURFACE LEAKAGE     =           0.0000       SURFACE LEAKAGE     =           0.0000

                TOTAL IN =       30486.5723                  TOTAL IN =       30486.5723

          OUT:                                     OUT:
          ----                                     ----
             STORAGE     =           0.0000               STORAGE     =           0.0000
       CONSTANT HEAD     =          60.9043         CONSTANT HEAD     =          60.9043
      STREAM LEAKAGE     =        7236.3486        STREAM LEAKAGE     =        7236.3486
       LAKE  SEEPAGE     =        2642.7739         LAKE  SEEPAGE     =        2642.7739
        UZF RECHARGE     =           0.0000          UZF RECHARGE     =           0.0000
               GW ET     =       20396.4609                 GW ET     =       20396.4609
     SURFACE LEAKAGE     =         134.1577       SURFACE LEAKAGE     =         134.1577

               TOTAL OUT =       30470.6465                 TOTAL OUT =       30470.6465

                IN - OUT =          15.9258                  IN - OUT =          15.9258

     PERCENT DISCREPANCY =           0.05         PERCENT DISCREPANCY =           0.05






         TIME SUMMARY AT END OF TIME STEP    1 IN STRESS PERIOD    1
                    SECONDS     MINUTES      HOURS       DAYS        YEARS
                    -----------------------------------------------------------
   TIME STEP LENGTH  86400.      1440.0      24.000      1.0000     2.73785E-03
 STRESS PERIOD TIME  86400.      1440.0      24.000      1.0000     2.73785E-03
         TOTAL TIME  86400.      1440.0      24.000      1.0000     2.73785E-03
1
1
                            STRESS PERIOD NO.    2, LENGTH =   5844.000    
                            -----------------------------------------------

                              NUMBER OF TIME STEPS =  5844

                               MULTIPLIER FOR DELT =     1.000

                            INITIAL TIME STEP SIZE =   1.000000    
 USING INFILTRATION RATE FROM PREVIOUS STRESS 
 PERIOD.CURRENT PERIOD IS:            2

USING ET RATE FROM PREVIOUS STRESS PERIOD. CURRENT PERIOD IS:       2

 USING ET EXTINCTION DEPTH FROM PREVIOUS STRESS PERIOD. CURRENT PERIOD IS:       2

 USING EXTINCTION WATER CONTENT FROM PREVIOUS STRESS PERIOD. CURRENT PERIOD IS:       2




 If any subsequent steady-state stress periods, min. and max. stages for each lake will be read in Record 9a.




 REUSING LAKE CONFIGURATION DATA FROM LAST STRESS PERIOD

0REUSING RECH,ET,WITHDRAWAL RATES FROM LAST STRESS PERIOD



         C               INTERFACE CONDUCTANCES BETWEEN LAKE AND AQUIFER CELLS
   L     O          (IF TYPE = 6, CONDUCTANCE (L^2/T) IS BETWEEN AQUIFER CELL AND OVERLYING LAKE CELL.)
   A     L  L  T    (IF TYPE = 1 TO 4, CONDUCTANCES ARE PER UNIT SATURATED THICKNESS (L/T).)
   Y  R  U  A  Y
   E  O  M  K  P                        LAKEBED      C O N D U C T A N C E S
   R  W  N  E  E     DELTA Y   DELTA X  LEAKANCE   LAKEBED   AQUIFER  COMBINED
 _______________________________________________________________________________
   1 32 37  1  2    9.00E+01  9.00E+01  1.00E-02  9.00E-01  0.00E+00  0.00E+00
   1 33 37  1  2    9.00E+01  9.00E+01  1.00E-02  9.00E-01  0.00E+00  0.00E+00
   1 34 37  1  2    9.00E+01  9.00E+01  1.00E-02  9.00E-01  0.00E+00  0.00E+00
   1 31 38  1  2    9.00E+01  9.00E+01  1.00E-02  9.00E-01  0.00E+00  0.00E+00
   1 31 38  1  3    9.00E+01  9.00E+01  1.00E-02  9.00E-01  0.00E+00  0.00E+00
   2 32 38  1  6    9.00E+01  9.00E+01  1.00E-02  8.10E+01  1.50E+01  1.27E+01
   2 33 38  1  6    9.00E+01  9.00E+01  1.00E-02  8.10E+01  9.03E+01  4.27E+01
   2 34 38  1  6    9.00E+01  9.00E+01  1.00E-02  8.10E+01  9.03E+01  4.27E+01
   1 35 38  1  4    9.00E+01  9.00E+01  1.00E-02  9.00E-01  0.00E+00  0.00E+00
   1 30 39  1  2    9.00E+01  9.00E+01  1.00E-02  9.00E-01  0.00E+00  0.00E+00
   1 30 39  1  3    9.00E+01  9.00E+01  1.00E-02  9.00E-01  0.00E+00  0.00E+00
   2 31 39  1  6    9.00E+01  9.00E+01  1.00E-02  8.10E+01  1.50E+01  1.27E+01
   2 32 39  1  6    9.00E+01  9.00E+01  1.00E-02  8.10E+01  9.03E+01  4.27E+01
   2 33 39  1  6    9.00E+01  9.00E+01  1.00E-02  8.10E+01  9.03E+01  4.27E+01
   2 34 39  1  6    9.00E+01  9.00E+01  1.00E-02  8.10E+01  9.03E+01  4.27E+01
   1 35 39  1  4    9.00E+01  9.00E+01  1.00E-02  9.00E-01  0.00E+00  0.00E+00
   1 29 40  1  3    9.00E+01  9.00E+01  1.00E-02  9.00E-01  0.00E+00  0.00E+00
   2 30 40  1  6    9.00E+01  9.00E+01  1.00E-02  8.10E+01  1.50E+01  1.27E+01
   2 31 40  1  6    9.00E+01  9.00E+01  1.00E-02  8.10E+01  1.50E+01  1.27E+01
   2 32 40  1  6    9.00E+01  9.00E+01  1.00E-02  8.10E+01  9.03E+01  4.27E+01
   2 33 40  1  6    9.00E+01  9.00E+01  1.00E-02  8.10E+01  9.03E+01  4.27E+01
   2 34 40  1  6    9.00E+01  9.00E+01  1.00E-02  8.10E+01  9.03E+01  4.27E+01
   1 35 40  1  4    9.00E+01  9.00E+01  1.00E-02  9.00E-01  0.00E+00  0.00E+00
   1 29 41  1  2    9.00E+01  9.00E+01  1.00E-02  9.00E-01  0.00E+00  0.00E+00
   1 29 41  1  3    9.00E+01  9.00E+01  1.00E-02  9.00E-01  0.00E+00  0.00E+00
   2 30 41  1  6    9.00E+01  9.00E+01  1.00E-02  8.10E+01  1.50E+01  1.27E+01
   2 31 41  1  6    9.00E+01  9.00E+01  1.00E-02  8.10E+01  1.50E+01  1.27E+01
   2 32 41  1  6    9.00E+01  9.00E+01  1.00E-02  8.10E+01  9.03E+01  4.27E+01
   2 33 41  1  6    9.00E+01  9.00E+01  1.00E-02  8.10E+01  9.03E+01  4.27E+01
   2 34 41  1  6    9.00E+01  9.00E+01  1.00E-02  8.10E+01  9.03E+01  4.27E+01
   1 35 41  1  4    9.00E+01  9.00E+01  1.00E-02  9.00E-01  0.00E+00  0.00E+00
   1 28 42  1  3    9.00E+01  9.00E+01  1.00E-02  9.00E-01  0.00E+00  0.00E+00
   2 29 42  1  6    9.00E+01  9.00E+01  1.00E-02  8.10E+01  1.50E+01  1.27E+01
   2 30 42  1  6    9.00E+01  9.00E+01  1.00E-02  8.10E+01  1.50E+01  1.27E+01
   2 31 42  1  6    9.00E+01  9.00E+01  1.00E-02  8.10E+01  1.50E+01  1.27E+01
   2 32 42  1  6    9.00E+01  9.00E+01  1.00E-02  8.10E+01  9.03E+01  4.27E+01
   2 33 42  1  6    9.00E+01  9.00E+01  1.00E-02  8.10E+01  9.03E+01  4.27E+01
   2 34 42  1  6    9.00E+01  9.00E+01  1.00E-02  8.10E+01  3.01E+01  2.19E+01
   1 35 42  1  2    9.00E+01  9.00E+01  1.00E-02  9.00E-01  0.00E+00  0.00E+00
   1 35 42  1  4    9.00E+01  9.00E+01  1.00E-02  9.00E-01  0.00E+00  0.00E+00
   1 28 43  1  3    9.00E+01  9.00E+01  1.00E-02  9.00E-01  0.00E+00  0.00E+00
   2 29 43  1  6    9.00E+01  9.00E+01  1.00E-02  8.10E+01  1.50E+01  1.27E+01
   2 30 43  1  6    9.00E+01  9.00E+01  1.00E-02  8.10E+01  1.50E+01  1.27E+01
   2 31 43  1  6    9.00E+01  9.00E+01  1.00E-02  8.10E+01  1.50E+01  1.27E+01
   2 32 43  1  6    9.00E+01  9.00E+01  1.00E-02  8.10E+01  9.03E+01  4.27E+01
   2 33 43  1  6    9.00E+01  9.00E+01  1.00E-02  8.10E+01  9.03E+01  4.27E+01
   2 34 43  1  6    9.00E+01  9.00E+01  1.00E-02  8.10E+01  3.01E+01  2.19E+01
   2 35 43  1  6    9.00E+01  9.00E+01  1.00E-02  8.10E+01  3.01E+01  2.19E+01
   1 36 43  1  4    9.00E+01  9.00E+01  1.00E-02  9.00E-01  0.00E+00  0.00E+00
   1 28 44  1  3    9.00E+01  9.00E+01  1.00E-02  9.00E-01  0.00E+00  0.00E+00
   2 29 44  1  6    9.00E+01  9.00E+01  1.00E-02  8.10E+01  1.50E+01  1.27E+01
   2 30 44  1  6    9.00E+01  9.00E+01  1.00E-02  8.10E+01  1.50E+01  1.27E+01
   2 31 44  1  6    9.00E+01  9.00E+01  1.00E-02  8.10E+01  3.01E+01  2.19E+01
   2 32 44  1  6    9.00E+01  9.00E+01  1.00E-02  8.10E+01  9.03E+01  4.27E+01
   2 33 44  1  6    9.00E+01  9.00E+01  1.00E-02  8.10E+01  9.03E+01  4.27E+01
   2 34 44  1  6    9.00E+01  9.00E+01  1.00E-02  8.10E+01  9.03E+01  4.27E+01
   2 35 44  1  6    9.00E+01  9.00E+01  1.00E-02  8.10E+01  3.01E+01  2.19E+01
   1 36 44  1  4    9.00E+01  9.00E+01  1.00E-02  9.00E-01  0.00E+00  0.00E+00
   1 29 45  1  1    9.00E+01  9.00E+01  1.00E-02  9.00E-01  0.00E+00  0.00E+00
   1 30 45  1  1    9.00E+01  9.00E+01  1.00E-02  9.00E-01  0.00E+00  0.00E+00
   1 31 45  1  1    9.00E+01  9.00E+01  1.00E-02  9.00E-01  0.00E+00  0.00E+00
   1 32 45  1  1    9.00E+01  9.00E+01  1.00E-02  9.00E-01  0.00E+00  0.00E+00
   1 33 45  1  1    9.00E+01  9.00E+01  1.00E-02  9.00E-01  0.00E+00  0.00E+00
   1 34 45  1  1    9.00E+01  9.00E+01  1.00E-02  9.00E-01  0.00E+00  0.00E+00
   1 35 45  1  1    9.00E+01  9.00E+01  1.00E-02  9.00E-01  0.00E+00  0.00E+00
   1 44 67  2  2    9.00E+01  9.00E+01  1.00E-02  9.00E-01  0.00E+00  0.00E+00
   1 43 68  2  3    9.00E+01  9.00E+01  1.00E-02  9.00E-01  0.00E+00  0.00E+00
   2 44 68  2  6    9.00E+01  9.00E+01  1.00E-02  8.10E+01  1.50E+01  1.27E+01
   1 45 68  2  2    9.00E+01  9.00E+01  1.00E-02  9.00E-01  0.00E+00  0.00E+00
   1 45 68  2  4    9.00E+01  9.00E+01  1.00E-02  9.00E-01  0.00E+00  0.00E+00
   1 46 68  2  2    9.00E+01  9.00E+01  1.00E-02  9.00E-01  0.00E+00  0.00E+00
   1 47 68  2  2    9.00E+01  9.00E+01  1.00E-02  9.00E-01  0.00E+00  0.00E+00
   1 43 69  2  3    9.00E+01  9.00E+01  1.00E-02  9.00E-01  0.00E+00  0.00E+00
   2 44 69  2  6    9.00E+01  9.00E+01  1.00E-02  8.10E+01  1.50E+01  1.27E+01
   2 45 69  2  6    9.00E+01  9.00E+01  1.00E-02  8.10E+01  1.50E+01  1.27E+01
   2 46 69  2  6    9.00E+01  9.00E+01  1.00E-02  8.10E+01  1.50E+01  1.27E+01
   2 47 69  2  6    9.00E+01  9.00E+01  1.00E-02  8.10E+01  1.50E+01  1.27E+01
   1 48 69  2  2    9.00E+01  9.00E+01  1.00E-02  9.00E-01  0.00E+00  0.00E+00
   1 48 69  2  4    9.00E+01  9.00E+01  1.00E-02  9.00E-01  0.00E+00  0.00E+00
   1 42 70  2  2    9.00E+01  9.00E+01  1.00E-02  9.00E-01  0.00E+00  0.00E+00
   1 43 70  2  2    9.00E+01  9.00E+01  1.00E-02  9.00E-01  0.00E+00  0.00E+00
   1 43 70  2  3    9.00E+01  9.00E+01  1.00E-02  9.00E-01  0.00E+00  0.00E+00
   2 44 70  2  6    9.00E+01  9.00E+01  1.00E-02  8.10E+01  3.01E+01  2.19E+01
   2 45 70  2  6    9.00E+01  9.00E+01  1.00E-02  8.10E+01  3.01E+01  2.19E+01
   2 46 70  2  6    9.00E+01  9.00E+01  1.00E-02  8.10E+01  3.01E+01  2.19E+01
   2 47 70  2  6    9.00E+01  9.00E+01  1.00E-02  8.10E+01  3.01E+01  2.19E+01
   2 48 70  2  6    9.00E+01  9.00E+01  1.00E-02  8.10E+01  3.01E+01  2.19E+01
   1 49 70  2  2    9.00E+01  9.00E+01  1.00E-02  9.00E-01  0.00E+00  0.00E+00
   1 49 70  2  4    9.00E+01  9.00E+01  1.00E-02  9.00E-01  0.00E+00  0.00E+00
   1 41 71  2  3    9.00E+01  9.00E+01  1.00E-02  9.00E-01  0.00E+00  0.00E+00
   2 42 71  2  6    9.00E+01  9.00E+01  1.00E-02  8.10E+01  9.03E+01  4.27E+01
   2 43 71  2  6    9.00E+01  9.00E+01  1.00E-02  8.10E+01  9.03E+01  4.27E+01
   2 44 71  2  6    9.00E+01  9.00E+01  1.00E-02  8.10E+01  3.01E+01  2.19E+01
   2 45 71  2  6    9.00E+01  9.00E+01  1.00E-02  8.10E+01  3.01E+01  2.19E+01
   2 46 71  2  6    9.00E+01  9.00E+01  1.00E-02  8.10E+01  3.01E+01  2.19E+01
   2 47 71  2  6    9.00E+01  9.00E+01  1.00E-02  8.10E+01  3.01E+01  2.19E+01
   2 48 71  2  6    9.00E+01  9.00E+01  1.00E-02  8.10E+01  9.03E+01  4.27E+01
   2 49 71  2  6    9.00E+01  9.00E+01  1.00E-02  8.10E+01  9.03E+01  4.27E+01
   1 50 71  2  4    9.00E+01  9.00E+01  1.00E-02  9.00E-01  0.00E+00  0.00E+00
   1 41 72  2  3    9.00E+01  9.00E+01  1.00E-02  9.00E-01  0.00E+00  0.00E+00
   2 42 72  2  6    9.00E+01  9.00E+01  1.00E-02  8.10E+01  9.03E+01  4.27E+01
   2 43 72  2  6    9.00E+01  9.00E+01  1.00E-02  8.10E+01  9.03E+01  4.27E+01
   2 44 72  2  6    9.00E+01  9.00E+01  1.00E-02  8.10E+01  9.03E+01  4.27E+01
   2 45 72  2  6    9.00E+01  9.00E+01  1.00E-02  8.10E+01  9.03E+01  4.27E+01
   2 46 72  2  6    9.00E+01  9.00E+01  1.00E-02  8.10E+01  9.03E+01  4.27E+01
   2 47 72  2  6    9.00E+01  9.00E+01  1.00E-02  8.10E+01  9.03E+01  4.27E+01
   2 48 72  2  6    9.00E+01  9.00E+01  1.00E-02  8.10E+01  9.03E+01  4.27E+01
   2 49 72  2  6    9.00E+01  9.00E+01  1.00E-02  8.10E+01  9.03E+01  4.27E+01
   1 50 72  2  4    9.00E+01  9.00E+01  1.00E-02  9.00E-01  0.00E+00  0.00E+00
   1 41 73  2  3    9.00E+01  9.00E+01  1.00E-02  9.00E-01  0.00E+00  0.00E+00
   2 42 73  2  6    9.00E+01  9.00E+01  1.00E-02  8.10E+01  9.03E+01  4.27E+01
   2 43 73  2  6    9.00E+01  9.00E+01  1.00E-02  8.10E+01  9.03E+01  4.27E+01
   2 44 73  2  6    9.00E+01  9.00E+01  1.00E-02  8.10E+01  9.03E+01  4.27E+01
   2 45 73  2  6    9.00E+01  9.00E+01  1.00E-02  8.10E+01  9.03E+01  4.27E+01
   2 46 73  2  6    9.00E+01  9.00E+01  1.00E-02  8.10E+01  3.01E+01  2.19E+01
   2 47 73  2  6    9.00E+01  9.00E+01  1.00E-02  8.10E+01  3.01E+01  2.19E+01
   2 48 73  2  6    9.00E+01  9.00E+01  1.00E-02  8.10E+01  3.01E+01  2.19E+01
   2 49 73  2  6    9.00E+01  9.00E+01  1.00E-02  8.10E+01  3.01E+01  2.19E+01
   1 50 73  2  4    9.00E+01  9.00E+01  1.00E-02  9.00E-01  0.00E+00  0.00E+00
   1 41 74  2  3    9.00E+01  9.00E+01  1.00E-02  9.00E-01  0.00E+00  0.00E+00
   2 42 74  2  6    9.00E+01  9.00E+01  1.00E-02  8.10E+01  9.03E+01  4.27E+01
   2 43 74  2  6    9.00E+01  9.00E+01  1.00E-02  8.10E+01  9.03E+01  4.27E+01
   2 44 74  2  6    9.00E+01  9.00E+01  1.00E-02  8.10E+01  3.01E+01  2.19E+01
   2 45 74  2  6    9.00E+01  9.00E+01  1.00E-02  8.10E+01  1.50E+01  1.27E+01
   1 46 74  2  1    9.00E+01  9.00E+01  1.00E-02  9.00E-01  0.00E+00  0.00E+00
   1 46 74  2  4    9.00E+01  9.00E+01  1.00E-02  9.00E-01  0.00E+00  0.00E+00
   1 47 74  2  1    9.00E+01  9.00E+01  1.00E-02  9.00E-01  0.00E+00  0.00E+00
   1 48 74  2  1    9.00E+01  9.00E+01  1.00E-02  9.00E-01  0.00E+00  0.00E+00
   1 49 74  2  1    9.00E+01  9.00E+01  1.00E-02  9.00E-01  0.00E+00  0.00E+00
   1 42 75  2  1    9.00E+01  9.00E+01  1.00E-02  9.00E-01  0.00E+00  0.00E+00
   1 43 75  2  1    9.00E+01  9.00E+01  1.00E-02  9.00E-01  0.00E+00  0.00E+00
   1 44 75  2  1    9.00E+01  9.00E+01  1.00E-02  9.00E-01  0.00E+00  0.00E+00
   1 45 75  2  1    9.00E+01  9.00E+01  1.00E-02  9.00E-01  0.00E+00  0.00E+00
 
      DEAD POOL STORAGE FOR LAKE    1 BELOW SEGMENT   18 IS EQUAL TO     0.2429382426E+05
 
 
      DEAD POOL STORAGE FOR LAKE    2 BELOW SEGMENT   19 IS EQUAL TO     0.1781481208E+05
 
      LAKE     INFLOWING STREAM SEGMENT
         1                  5
         2                 17   20

 MAXIMUM NUMBER OF STREAMS INFLOWING TO A LAKE IS    2

      LAKE     OUTFLOWING STREAM SEGMENT
         1                 18
         2                 19

 MAXIMUM NUMBER OF STREAMS OUTFLOWING FROM A LAKE IS    1

                                                   Max.-Head-Change                         Max.-Flux-Residual
  Residual-Control   Outer-Iter.   Inner-Iter.     Column Row Layer    Maximum-Head-Change  Column Row Layer    Maximum-Flux-Residual          L2-NORM 
          0                 1           5             9   52     2       0.4452140208E+01      63   38    2        -0.6060025903E+03      0.1104680673E+04
          0                 2           5            11   48     2       0.1801036727E+01      33   37    2         0.8215372699E+03      0.9002541642E+03
          0                 3           3            54   34     2       0.3211812011E+00      33   37    2        -0.5623570998E+03      0.6932734058E+03
          0                 4           3            54   34     2       0.4276674341E-01      33   37    2        -0.8827993581E+02      0.1101265107E+03
          0                 5           3            43   32     2       0.1055969488E-01      33   37    2        -0.1613105200E+02      0.2278617552E+02
          0                 6           2            63   38     2      -0.1807419779E-02      63   38    2        -0.3481093006E+01      0.6074805552E+01
          0                 7           2            43   32     2      -0.8213092913E-03      63   38    2        -0.1369449445E+01      0.2044523461E+01
          0                 8           1            43   32     2      -0.4136169938E-03      63   38    2        -0.5311061933E+00      0.7618006167E+00
          0                 9           1            43   32     2      -0.1854695194E-03      63   38    2        -0.2047290102E+00      0.2940398091E+00
          0                10           1            43   32     2      -0.7987588230E-04      63   38    2        -0.7887758359E-01      0.1155367882E+00

    ------------------------------------------------
       NWT REQUIRED           10 OUTER ITERATIONS 
       AND A TOTAL OF         26 INNER ITERATIONS.
    ------------------------------------------------
                                                   Max.-Head-Change                         Max.-Flux-Residual
  Residual-Control   Outer-Iter.   Inner-Iter.     Column Row Layer    Maximum-Head-Change  Column Row Layer    Maximum-Flux-Residual          L2-NORM 
          0                 1           3            74   39     2       0.7174277273E-01      74   39    2         0.4352645411E+02      0.8180290089E+02
          0                 2           2            74   39     2       0.2503241809E-01      74   39    2         0.1514553950E+02      0.1636358956E+02
          0                 3           2            74   39     2       0.8741209103E-02      74   39    2         0.5288362544E+01      0.5528506978E+01
          0                 4           2            74   39     2       0.3052333777E-02      74   39    2         0.1846714199E+01      0.1929207671E+01
          0                 5           1            74   39     2       0.1065892410E-02      74   39    2         0.6448693592E+00      0.6777205673E+00
          0                 6           1            74   39     2       0.3722361717E-03      74   39    2         0.2251963433E+00      0.2376155221E+00
          0                 7           1            74   39     2       0.1300035665E-03      74   39    2         0.7864591206E-01      0.8312517638E-01
          0                 8           1            74   39     2       0.4540736954E-04      74   39    2         0.2746762433E-01      0.2906622713E-01

    ------------------------------------------------
       NWT REQUIRED            8 OUTER ITERATIONS 
       AND A TOTAL OF         13 INNER ITERATIONS.
    ------------------------------------------------
                                                   Max.-Head-Change                         Max.-Flux-Residual
  Residual-Control   Outer-Iter.   Inner-Iter.     Column Row Layer    Maximum-Head-Change  Column Row Layer    Maximum-Flux-Residual          L2-NORM 
          0                 1           1            24   33     2      -0.9540881433E-03      75   40    2        -0.4934747396E-01      0.1570566170E+00
          0                 2           1            24   33     2      -0.8485269137E-03      54   34    2        -0.1138609012E+00      0.2171107799E+00
          0                 3           2            24   33     2       0.1615026530E-02      54   34    2        -0.1429990953E+00      0.3192632863E+00
          0                 4           1            24   33     2       0.1650563402E-03      54   34    2         0.1444232686E+00      0.2135381268E+00
          0                 5           1            54   34     2       0.5180410710E-04      54   34    2         0.9192482587E-01      0.1176495048E+00

    ------------------------------------------------
       NWT REQUIRED            5 OUTER ITERATIONS 
       AND A TOTAL OF          6 INNER ITERATIONS.
    ------------------------------------------------
                                                   Max.-Head-Change                         Max.-Flux-Residual
  Residual-Control   Outer-Iter.   Inner-Iter.     Column Row Layer    Maximum-Head-Change  Column Row Layer    Maximum-Flux-Residual          L2-NORM 
          0                 1           1            24   33     2      -0.9507584785E-03      54   34    2         0.4347269529E-01      0.1452881336E+00
          0                 2           1            24   33     2      -0.8484463999E-03      54   34    2        -0.1071886780E+00      0.2109692868E+00
          0                 3           2            24   33     2       0.1615217292E-02      54   34    2        -0.1410107586E+00      0.3212201187E+00
          0                 4           1            24   33     2       0.1651206180E-03      54   34    2         0.1449622204E+00      0.2070539081E+00
          0                 5           1            54   34     2       0.5195725118E-04      54   34    2         0.9218864315E-01      0.1204304300E+00

    ------------------------------------------------
       NWT REQUIRED            5 OUTER ITERATIONS 
       AND A TOTAL OF          6 INNER ITERATIONS.
    ------------------------------------------------

 OUTPUT CONTROL FOR STRESS PERIOD    2   TIME STEP    1
    PRINT BUDGET



 STREAM LISTING     PERIOD      2   STEP        1

 LAYER ROW COL. STREAM  RCH.   FLOW INTO    STREAM     FLOW OUT OF   OVRLND.    DIRECT     STREAM      STREAM      STREAM     STREAM  STREAMBED   FLOW TO   CHNG. UNSAT. 
                SEG.NO.  NO.   STRM. RCH.    LOSS       STRM. RCH.   RUNOFF     PRECIP       ET         HEAD        DEPTH      WIDTH  CONDCTNC.   WAT. TAB.

   2   18   62     1     1    0.0000E+00  0.0000E+00   0.0000E+00  0.000E+00  0.000E+00  0.000E+00  2.07300E+03  0.000E+00  3.000E+00  1.909E+03  0.000E+00  0.000E+00
   2   19   63     1     2    0.0000E+00  0.0000E+00   0.0000E+00  0.000E+00  0.000E+00  0.000E+00  2.06300E+03  0.000E+00  3.000E+00  1.909E+03  0.000E+00  0.000E+00
   2   20   64     1     3    0.0000E+00 -7.0063E+01   7.0063E+01  0.000E+00  0.000E+00  0.000E+00  2.05400E+03  1.648E-03  3.000E+00  1.630E+03  0.000E+00  0.000E+00
   2   21   64     1     4    7.0063E+01 -7.0710E+01   1.4077E+02  0.000E+00  0.000E+00  0.000E+00  2.05100E+03  3.931E-03  3.000E+00  1.630E+03  0.000E+00  0.000E+00
   2   22   65     1     5    1.4077E+02  2.4523E+00   1.3832E+02  0.000E+00  0.000E+00  0.000E+00  2.04800E+03  3.962E-03  3.000E+00  9.546E+02  0.000E+00  0.000E+00
   2   20   66     2     1    0.0000E+00  0.0000E+00   0.0000E+00  0.000E+00  0.000E+00  0.000E+00  2.05300E+03  0.000E+00  3.000E+00  1.909E+03  0.000E+00  0.000E+00
   2   21   65     2     2    0.0000E+00  0.0000E+00   0.0000E+00  0.000E+00  0.000E+00  0.000E+00  2.05100E+03  0.000E+00  3.000E+00  1.630E+03  0.000E+00  0.000E+00
   2   22   65     2     3    0.0000E+00 -8.6447E-01   8.6447E-01  0.000E+00  0.000E+00  0.000E+00  2.04800E+03  1.119E-04  3.000E+00  6.750E+02  0.000E+00  0.000E+00
   2   22   65     3     1    1.3919E+02  1.4587E+00   1.3773E+02  0.000E+00  0.000E+00  0.000E+00  2.04800E+03  3.554E-03  3.000E+00  6.750E+02  0.000E+00  0.000E+00
   2   23   65     3     2    1.3773E+02 -6.3882E+01   2.0161E+02  0.000E+00  0.000E+00  0.000E+00  2.04501E+03  6.438E-03  3.000E+00  1.630E+03  0.000E+00  0.000E+00
   2   24   66     3     3    2.0161E+02  2.0161E+02   0.0000E+00  0.000E+00  0.000E+00  0.000E+00  2.04506E+03  5.597E-02  3.000E+00  1.909E+03  0.000E+00  0.000E+00
   2   25   67     3     4    0.0000E+00  0.0000E+00   0.0000E+00  0.000E+00  0.000E+00  0.000E+00  2.04500E+03  0.000E+00  3.000E+00  1.909E+03  0.000E+00  0.000E+00
   2   26   68     3     5    0.0000E+00  0.0000E+00   0.0000E+00  0.000E+00  0.000E+00  0.000E+00  2.04200E+03  0.000E+00  3.000E+00  1.630E+03  0.000E+00  0.000E+00
   2   27   68     3     6    0.0000E+00  0.0000E+00   0.0000E+00  0.000E+00  0.000E+00  0.000E+00  2.04100E+03  0.000E+00  3.000E+00  1.630E+03  0.000E+00  0.000E+00
   2   28   69     3     7    0.0000E+00  0.0000E+00   0.0000E+00  0.000E+00  0.000E+00  0.000E+00  2.03600E+03  0.000E+00  3.000E+00  1.630E+03  0.000E+00  0.000E+00
   2   29   69     3     8    0.0000E+00  0.0000E+00   0.0000E+00  0.000E+00  0.000E+00  0.000E+00  2.02900E+03  0.000E+00  3.000E+00  1.350E+03  0.000E+00  0.000E+00
   2   30   69     3     9    0.0000E+00  0.0000E+00   0.0000E+00  0.000E+00  0.000E+00  0.000E+00  2.02300E+03  0.000E+00  3.000E+00  1.630E+03  0.000E+00  0.000E+00
   2   31   70     3    10    0.0000E+00  0.0000E+00   0.0000E+00  0.000E+00  0.000E+00  0.000E+00  2.01100E+03  0.000E+00  3.000E+00  1.630E+03  0.000E+00  0.000E+00
   2   32   70     3    11    0.0000E+00 -1.5497E+01   1.5497E+01  0.000E+00  0.000E+00  0.000E+00  2.00500E+03  7.116E-04  3.000E+00  1.350E+03  0.000E+00  0.000E+00
   2   33   70     3    12    1.5497E+01  1.5497E+01   0.0000E+00  0.000E+00  0.000E+00  0.000E+00  2.00300E+03  1.981E-04  3.000E+00  1.630E+03  0.000E+00  1.550E+01
   2   34   69     3    13    0.0000E+00  0.0000E+00   0.0000E+00  0.000E+00  0.000E+00  0.000E+00  1.98600E+03  0.000E+00  3.000E+00  1.630E+03  0.000E+00  0.000E+00
   2   35   69     3    14    0.0000E+00 -1.1470E+02   1.1470E+02  0.000E+00  0.000E+00  0.000E+00  1.97300E+03  1.824E-03  3.000E+00  1.350E+03  0.000E+00  0.000E+00
   2   36   69     3    15    1.1470E+02  1.1470E+02   0.0000E+00  0.000E+00  0.000E+00  0.000E+00  1.96700E+03  6.819E-04  3.000E+00  1.350E+03  0.000E+00  0.000E+00
   2   37   69     3    16    0.0000E+00  0.0000E+00   0.0000E+00  0.000E+00  0.000E+00  0.000E+00  1.95900E+03  0.000E+00  3.000E+00  1.350E+03  0.000E+00  0.000E+00
   2   38   69     3    17    0.0000E+00  0.0000E+00   0.0000E+00  0.000E+00  0.000E+00  0.000E+00  1.95300E+03  0.000E+00  3.000E+00  1.630E+03  0.000E+00  0.000E+00
   2   39   70     3    18    0.0000E+00 -1.6289E+01   1.6289E+01  0.000E+00  0.000E+00  0.000E+00  1.94600E+03  6.006E-04  3.000E+00  9.546E+02  0.000E+00  0.000E+00
   2   25   49     4     1    0.0000E+00 -1.1880E+02   1.1880E+02  0.000E+00  0.000E+00  0.000E+00  2.03500E+03  2.006E-03  3.000E+00  1.909E+03  0.000E+00  0.000E+00
   2   26   50     4     2    1.1880E+02 -8.7758E+01   2.0656E+02  0.000E+00  0.000E+00  0.000E+00  2.02600E+03  3.984E-03  3.000E+00  1.909E+03  0.000E+00  0.000E+00
   2   27   51     4     3    2.0656E+02 -7.6715E+01   2.8327E+02  0.000E+00  0.000E+00  0.000E+00  2.01901E+03  5.294E-03  3.000E+00  1.630E+03  0.000E+00  0.000E+00
   2   28   51     4     4    2.8327E+02 -7.3204E+01   3.5648E+02  0.000E+00  0.000E+00  0.000E+00  2.01401E+03  6.564E-03  3.000E+00  1.630E+03  0.000E+00  0.000E+00
   2   29   52     4     5    3.5648E+02 -6.7225E+01   4.2370E+02  0.000E+00  0.000E+00  0.000E+00  2.00901E+03  7.394E-03  3.000E+00  1.630E+03  0.000E+00  0.000E+00
   2   30   52     4     6    4.2370E+02 -5.1684E+01   4.7539E+02  0.000E+00  0.000E+00  0.000E+00  2.00401E+03  7.608E-03  3.000E+00  1.350E+03  0.000E+00  0.000E+00
   2   31   52     4     7    4.7539E+02 -7.4447E+01   5.4983E+02  0.000E+00  0.000E+00  0.000E+00  1.99901E+03  9.162E-03  3.000E+00  1.350E+03  0.000E+00  0.000E+00
   2   32   52     4     8    5.4983E+02  2.9953E+01   5.1988E+02  0.000E+00  0.000E+00  0.000E+00  1.99701E+03  9.554E-03  3.000E+00  1.630E+03  0.000E+00  0.000E+00
   2   33   53     4     9    5.1988E+02  3.3538E+01   4.8634E+02  0.000E+00  0.000E+00  0.000E+00  1.99101E+03  9.032E-03  3.000E+00  1.909E+03  0.000E+00  0.000E+00
   2   34   54     4    10    4.8634E+02  4.8634E+02   0.0000E+00  0.000E+00  0.000E+00  0.000E+00  1.98700E+03  2.055E-03  3.000E+00  1.909E+03  1.915E+00  1.912E+00
   2   35   55     4    11    0.0000E+00  0.0000E+00   0.0000E+00  0.000E+00  0.000E+00  0.000E+00  1.98200E+03  0.000E+00  3.000E+00  1.630E+03  0.000E+00  0.000E+00
   2   36   55     4    12    0.0000E+00 -6.9484E+01   6.9484E+01  0.000E+00  0.000E+00  0.000E+00  1.97600E+03  1.480E-03  3.000E+00  6.750E+02  0.000E+00  0.000E+00
   2   35   37     5     1    3.3448E+03  0.0000E+00   3.3448E+03  0.000E+00  0.000E+00  0.000E+00  2.05402E+03  1.985E-02  3.000E+00  0.000E+00  0.000E+00  0.000E+00
   2   34   38     5     2    3.3448E+03  0.0000E+00   3.3448E+03  0.000E+00  0.000E+00  0.000E+00  2.04002E+03  2.444E-02  3.000E+00  0.000E+00  0.000E+00  0.000E+00
   2   33   39     5     3    3.3448E+03  0.0000E+00   3.3448E+03  0.000E+00  0.000E+00  0.000E+00  2.03203E+03  2.905E-02  3.000E+00  0.000E+00  0.000E+00  0.000E+00
   2   32   40     5     4    3.3448E+03  0.0000E+00   3.3448E+03  0.000E+00  0.000E+00  0.000E+00  2.03003E+03  2.870E-02  3.000E+00  0.000E+00  0.000E+00  0.000E+00
   2   32   41     5     5    3.3448E+03  0.0000E+00   3.3448E+03  0.000E+00  0.000E+00  0.000E+00  2.02602E+03  2.402E-02  3.000E+00  0.000E+00  0.000E+00  0.000E+00
   2   32   42     5     6    3.3448E+03  0.0000E+00   3.3448E+03  0.000E+00  0.000E+00  0.000E+00  2.02203E+03  2.823E-02  3.000E+00  0.000E+00  0.000E+00  0.000E+00
   2   32   43     5     7    3.3448E+03  0.0000E+00   3.3448E+03  0.000E+00  0.000E+00  0.000E+00  2.02003E+03  3.129E-02  3.000E+00  0.000E+00  0.000E+00  0.000E+00
   2   33   44     5     8    3.3448E+03  0.0000E+00   3.3448E+03  0.000E+00  0.000E+00  0.000E+00  2.01903E+03  3.132E-02  3.000E+00  0.000E+00  0.000E+00  0.000E+00
   2   34   47     6     1    1.1697E+02  4.3144E+00   1.1266E+02  0.000E+00  0.000E+00  0.000E+00  2.00700E+03  2.519E-03  3.000E+00  6.750E+02  0.000E+00  0.000E+00
   2   34   48     6     2    1.1266E+02 -1.2650E+02   2.3916E+02  0.000E+00  0.000E+00  0.000E+00  2.00100E+03  4.238E-03  3.000E+00  1.630E+03  0.000E+00  0.000E+00
   2   35   49     6     3    2.3916E+02 -2.5592E+02   4.9508E+02  0.000E+00  0.000E+00  0.000E+00  1.99401E+03  6.928E-03  3.000E+00  1.630E+03  0.000E+00  0.000E+00
   2   35   50     6     4    4.9508E+02 -1.8475E+02   6.7983E+02  0.000E+00  0.000E+00  0.000E+00  1.99001E+03  1.100E-02  3.000E+00  1.350E+03  0.000E+00  0.000E+00
   2   35   51     6     5    6.7983E+02  4.1224E+01   6.3860E+02  0.000E+00  0.000E+00  0.000E+00  1.98901E+03  1.181E-02  3.000E+00  1.630E+03  0.000E+00  0.000E+00
   2   36   52     6     6    6.3860E+02 -1.1095E+02   7.4956E+02  0.000E+00  0.000E+00  0.000E+00  1.98401E+03  1.078E-02  3.000E+00  1.630E+03  0.000E+00  0.000E+00
   2   36   53     6     7    7.4956E+02 -2.5147E+02   1.0010E+03  0.000E+00  0.000E+00  0.000E+00  1.98002E+03  1.581E-02  3.000E+00  1.630E+03  0.000E+00  0.000E+00
   2   37   54     6     8    1.0010E+03 -3.7274E+01   1.0383E+03  0.000E+00  0.000E+00  0.000E+00  1.98002E+03  1.817E-02  3.000E+00  1.909E+03  0.000E+00  0.000E+00
   2   36   55     6     9    1.0383E+03 -8.6033E+01   1.1243E+03  0.000E+00  0.000E+00  0.000E+00  1.97601E+03  1.429E-02  3.000E+00  9.546E+02  0.000E+00  0.000E+00
   2   36   34     7     1    8.8151E+02 -4.9378E+01   9.3089E+02  0.000E+00  0.000E+00  0.000E+00  2.07701E+03  8.243E-03  3.000E+00  9.546E+02  0.000E+00  0.000E+00
   2   35   35     7     2    9.3089E+02 -1.0479E+02   1.0357E+03  0.000E+00  0.000E+00  0.000E+00  2.06701E+03  1.140E-02  3.000E+00  1.630E+03  0.000E+00  0.000E+00
   2   35   36     7     3    1.0357E+03  5.3292E+01   9.8239E+02  0.000E+00  0.000E+00  0.000E+00  2.06201E+03  1.142E-02  3.000E+00  1.350E+03  0.000E+00  0.000E+00
   2   35   37     7     4    9.8239E+02 -6.1624E+01   1.0440E+03  0.000E+00  0.000E+00  0.000E+00  2.05401E+03  8.740E-03  3.000E+00  6.750E+02  0.000E+00  0.000E+00
   2   52   49     8     1    0.0000E+00 -1.8745E+02   1.8745E+02  0.000E+00  0.000E+00  0.000E+00  2.12100E+03  2.718E-03  3.000E+00  1.909E+03  0.000E+00  0.000E+00
   2   51   48     8     2    1.8745E+02 -2.3435E+02   4.2180E+02  0.000E+00  0.000E+00  0.000E+00  2.11701E+03  8.799E-03  3.000E+00  1.909E+03  0.000E+00  0.000E+00
   2   50   47     8     3    4.2180E+02  2.0695E+02   2.1485E+02  0.000E+00  0.000E+00  0.000E+00  2.11701E+03  6.998E-03  3.000E+00  1.630E+03  0.000E+00  0.000E+00
   2   49   47     8     4    2.1485E+02 -2.5896E+02   4.7381E+02  0.000E+00  0.000E+00  0.000E+00  2.10901E+03  6.860E-03  3.000E+00  1.630E+03  0.000E+00  0.000E+00
   2   48   46     8     5    4.7381E+02  4.1542E+01   4.3226E+02  0.000E+00  0.000E+00  0.000E+00  2.10701E+03  1.065E-02  3.000E+00  1.630E+03  0.000E+00  0.000E+00
   2   47   46     8     6    4.3226E+02  2.3422E+02   1.9805E+02  0.000E+00  0.000E+00  0.000E+00  2.10501E+03  8.093E-03  3.000E+00  1.350E+03  0.000E+00  0.000E+00
   2   46   46     8     7    1.9805E+02  8.1000E+01   1.1705E+02  0.000E+00  0.000E+00  0.000E+00  2.10300E+03  4.728E-03  3.000E+00  1.350E+03  0.000E+00  8.100E+01
   2   45   46     8     8    1.1705E+02  8.1000E+01   3.6046E+01  0.000E+00  0.000E+00  0.000E+00  2.09900E+03  2.490E-03  3.000E+00  1.350E+03  0.000E+00  8.100E+01
   2   44   46     8     9    3.6046E+01  3.6046E+01   0.0000E+00  0.000E+00  0.000E+00  0.000E+00  2.09100E+03  3.107E-04  3.000E+00  1.350E+03  0.000E+00  3.605E+01
   2   43   46     8    10    0.0000E+00  0.0000E+00   0.0000E+00  0.000E+00  0.000E+00  0.000E+00  2.08000E+03  0.000E+00  3.000E+00  1.350E+03  0.000E+00  0.000E+00
   2   42   46     8    11    0.0000E+00  0.0000E+00   0.0000E+00  0.000E+00  0.000E+00  0.000E+00  2.07200E+03  0.000E+00  3.000E+00  1.630E+03  0.000E+00  0.000E+00
   2   41   45     8    12    0.0000E+00  0.0000E+00   0.0000E+00  0.000E+00  0.000E+00  0.000E+00  2.06000E+03  0.000E+00  3.000E+00  1.630E+03  0.000E+00  0.000E+00
   2   40   45     8    13    0.0000E+00  0.0000E+00   0.0000E+00  0.000E+00  0.000E+00  0.000E+00  2.05400E+03  0.000E+00  3.000E+00  1.350E+03  0.000E+00  0.000E+00
   2   39   45     8    14    0.0000E+00  0.0000E+00   0.0000E+00  0.000E+00  0.000E+00  0.000E+00  2.04600E+03  0.000E+00  3.000E+00  1.350E+03  0.000E+00  0.000E+00
   2   38   45     8    15    0.0000E+00  0.0000E+00   0.0000E+00  0.000E+00  0.000E+00  0.000E+00  2.03500E+03  0.000E+00  3.000E+00  1.350E+03  0.000E+00  0.000E+00
   2   37   45     8    16    0.0000E+00  0.0000E+00   0.0000E+00  0.000E+00  0.000E+00  0.000E+00  2.02700E+03  0.000E+00  3.000E+00  1.630E+03  0.000E+00  0.000E+00
   2   36   46     8    17    0.0000E+00  0.0000E+00   0.0000E+00  0.000E+00  0.000E+00  0.000E+00  2.02100E+03  0.000E+00  3.000E+00  1.630E+03  0.000E+00  0.000E+00
   2   35   46     8    18    0.0000E+00  0.0000E+00   0.0000E+00  0.000E+00  0.000E+00  0.000E+00  2.01400E+03  0.000E+00  3.000E+00  1.630E+03  0.000E+00  0.000E+00
   2   34   47     8    19    0.0000E+00  0.0000E+00   0.0000E+00  0.000E+00  0.000E+00  0.000E+00  2.00700E+03  0.000E+00  3.000E+00  9.546E+02  0.000E+00  0.000E+00
   2   37   26     9     1    0.0000E+00  0.0000E+00   0.0000E+00  0.000E+00  0.000E+00  0.000E+00  2.14700E+03  0.000E+00  3.000E+00  1.350E+03  0.000E+00  0.000E+00
   2   37   27     9     2    0.0000E+00  0.0000E+00   0.0000E+00  0.000E+00  0.000E+00  0.000E+00  2.13400E+03  0.000E+00  3.000E+00  1.350E+03  0.000E+00  0.000E+00
   2   37   28     9     3    0.0000E+00 -1.1230E+02   1.1230E+02  0.000E+00  0.000E+00  0.000E+00  2.12500E+03  1.906E-03  3.000E+00  1.630E+03  0.000E+00  0.000E+00
   2   36   29     9     4    1.1230E+02  1.1230E+02   0.0000E+00  0.000E+00  0.000E+00  0.000E+00  2.11500E+03  6.607E-04  3.000E+00  1.630E+03  0.000E+00  0.000E+00
   2   36   30     9     5    0.0000E+00 -3.4452E+01   3.4452E+01  0.000E+00  0.000E+00  0.000E+00  2.10700E+03  9.167E-04  3.000E+00  1.350E+03  0.000E+00  0.000E+00
   2   36   31     9     6    3.4452E+01 -1.8198E+02   2.1643E+02  0.000E+00  0.000E+00  0.000E+00  2.09800E+03  3.072E-03  3.000E+00  1.350E+03  0.000E+00  0.000E+00
   2   36   32     9     7    2.1643E+02 -1.2797E+02   3.4439E+02  0.000E+00  0.000E+00  0.000E+00  2.09101E+03  5.182E-03  3.000E+00  1.350E+03  0.000E+00  0.000E+00
   2   36   33     9     8    3.4439E+02 -1.2955E+02   4.7395E+02  0.000E+00  0.000E+00  0.000E+00  2.08401E+03  6.500E-03  3.000E+00  1.350E+03  0.000E+00  0.000E+00
   2   36   34     9     9    4.7395E+02 -3.6723E+01   5.1067E+02  0.000E+00  0.000E+00  0.000E+00  2.07701E+03  5.566E-03  3.000E+00  6.750E+02  0.000E+00  0.000E+00
   2   58   37    10     1    0.0000E+00  0.0000E+00   0.0000E+00  0.000E+00  0.000E+00  0.000E+00  2.15000E+03  0.000E+00  3.000E+00  1.350E+03  0.000E+00  0.000E+00
   2   57   37    10     2    0.0000E+00 -6.1628E+01   6.1628E+01  0.000E+00  0.000E+00  0.000E+00  2.14700E+03  1.794E-03  3.000E+00  1.630E+03  0.000E+00  0.000E+00
   2   56   38    10     3    6.1628E+01  6.1628E+01   0.0000E+00  0.000E+00  0.000E+00  0.000E+00  2.14300E+03  5.675E-04  3.000E+00  1.630E+03  0.000E+00  0.000E+00
   2   55   38    10     4    0.0000E+00 -1.6894E+02   1.6894E+02  0.000E+00  0.000E+00  0.000E+00  2.13800E+03  2.984E-03  3.000E+00  1.350E+03  0.000E+00  0.000E+00
   2   54   38    10     5    1.6894E+02 -1.1300E+02   2.8194E+02  0.000E+00  0.000E+00  0.000E+00  2.13501E+03  5.862E-03  3.000E+00  1.350E+03  0.000E+00  0.000E+00
   2   53   38    10     6    2.8194E+02 -9.7630E+01   3.7957E+02  0.000E+00  0.000E+00  0.000E+00  2.13201E+03  7.377E-03  3.000E+00  1.350E+03  0.000E+00  0.000E+00
   2   52   38    10     7    3.7957E+02 -1.5931E+02   5.3888E+02  0.000E+00  0.000E+00  0.000E+00  2.12901E+03  1.073E-02  3.000E+00  1.630E+03  0.000E+00  0.000E+00
   2   51   39    10     8    5.3888E+02  4.2600E+01   4.9628E+02  0.000E+00  0.000E+00  0.000E+00  2.12801E+03  1.153E-02  3.000E+00  1.630E+03  0.000E+00  0.000E+00
   2   50   39    10     9    4.9628E+02 -8.3429E+01   5.7971E+02  0.000E+00  0.000E+00  0.000E+00  2.12501E+03  9.979E-03  3.000E+00  1.630E+03  0.000E+00  0.000E+00
   2   49   38    10    10    5.7971E+02 -1.5409E+02   7.3381E+02  0.000E+00  0.000E+00  0.000E+00  2.12101E+03  1.180E-02  3.000E+00  1.909E+03  0.000E+00  0.000E+00
   2   48   37    10    11    7.3381E+02  4.1039E+01   6.9277E+02  0.000E+00  0.000E+00  0.000E+00  2.11801E+03  1.054E-02  3.000E+00  1.909E+03  0.000E+00  0.000E+00
   2   47   36    10    12    6.9277E+02 -3.3877E+02   1.0315E+03  0.000E+00  0.000E+00  0.000E+00  2.10901E+03  1.127E-02  3.000E+00  1.630E+03  0.000E+00  0.000E+00
   2   46   36    10    13    1.0315E+03 -1.3276E+02   1.1643E+03  0.000E+00  0.000E+00  0.000E+00  2.10601E+03  1.447E-02  3.000E+00  1.350E+03  0.000E+00  0.000E+00
   2   45   36    10    14    1.1643E+03 -1.6753E+02   1.3318E+03  0.000E+00  0.000E+00  0.000E+00  2.10202E+03  1.563E-02  3.000E+00  1.350E+03  0.000E+00  0.000E+00
   2   44   36    10    15    1.3318E+03 -9.7955E+01   1.4298E+03  0.000E+00  0.000E+00  0.000E+00  2.09902E+03  1.739E-02  3.000E+00  1.350E+03  0.000E+00  0.000E+00
   2   43   36    10    16    1.4298E+03 -1.0223E+01   1.4400E+03  0.000E+00  0.000E+00  0.000E+00  2.09602E+03  1.667E-02  3.000E+00  1.630E+03  0.000E+00  0.000E+00
   2   42   37    10    17    1.4400E+03  1.9490E+02   1.2451E+03  0.000E+00  0.000E+00  0.000E+00  2.09001E+03  1.348E-02  3.000E+00  1.630E+03  0.000E+00  0.000E+00
   2   41   37    10    18    1.2451E+03 -2.6175E+02   1.5069E+03  0.000E+00  0.000E+00  0.000E+00  2.08001E+03  1.293E-02  3.000E+00  1.350E+03  0.000E+00  0.000E+00
   2   40   37    10    19    1.5069E+03 -3.1678E+02   1.8236E+03  0.000E+00  0.000E+00  0.000E+00  2.07402E+03  1.823E-02  3.000E+00  1.630E+03  0.000E+00  0.000E+00
   2   39   38    10    20    1.8236E+03 -7.5815E+00   1.8312E+03  0.000E+00  0.000E+00  0.000E+00  2.07102E+03  2.078E-02  3.000E+00  1.630E+03  0.000E+00  0.000E+00
   2   38   38    10    21    1.8312E+03  6.0183E+01   1.7710E+03  0.000E+00  0.000E+00  0.000E+00  2.06702E+03  1.851E-02  3.000E+00  1.630E+03  0.000E+00  0.000E+00
   2   37   37    10    22    1.7710E+03 -2.8086E+02   2.0519E+03  0.000E+00  0.000E+00  0.000E+00  2.06102E+03  1.919E-02  3.000E+00  1.630E+03  0.000E+00  0.000E+00
   2   36   37    10    23    2.0519E+03 -1.9206E+02   2.2440E+03  0.000E+00  0.000E+00  0.000E+00  2.05702E+03  2.164E-02  3.000E+00  1.350E+03  0.000E+00  0.000E+00
   2   35   37    10    24    2.2440E+03 -5.6806E+01   2.3008E+03  0.000E+00  0.000E+00  0.000E+00  2.05402E+03  1.588E-02  3.000E+00  6.750E+02  0.000E+00  0.000E+00
   2   36   55    11     1    1.1938E+03 -6.2012E+01   1.2558E+03  0.000E+00  0.000E+00  0.000E+00  1.97601E+03  1.255E-02  3.000E+00  6.750E+02  0.000E+00  0.000E+00
   2   36   56    11     2    1.2558E+03 -1.0347E+02   1.3593E+03  0.000E+00  0.000E+00  0.000E+00  1.97502E+03  2.192E-02  3.000E+00  1.630E+03  0.000E+00  0.000E+00
   2   37   57    11     3    1.3593E+03 -1.0771E+02   1.4670E+03  0.000E+00  0.000E+00  0.000E+00  1.97302E+03  2.297E-02  3.000E+00  1.630E+03  0.000E+00  0.000E+00
   2   37   58    11     4    1.4670E+03 -6.4409E+01   1.5314E+03  0.000E+00  0.000E+00  0.000E+00  1.97203E+03  3.127E-02  3.000E+00  1.350E+03  0.000E+00  0.000E+00
   2   37   59    11     5    1.5314E+03  7.0453E+01   1.4610E+03  0.000E+00  0.000E+00  0.000E+00  1.97203E+03  2.537E-02  3.000E+00  1.350E+03  0.000E+00  0.000E+00
   2   37   60    11     6    1.4610E+03 -3.3838E+01   1.4948E+03  0.000E+00  0.000E+00  0.000E+00  1.97002E+03  2.024E-02  3.000E+00  1.630E+03  0.000E+00  0.000E+00
   2   38   61    11     7    1.4948E+03 -1.4380E+02   1.6386E+03  0.000E+00  0.000E+00  0.000E+00  1.96702E+03  1.895E-02  3.000E+00  1.630E+03  0.000E+00  0.000E+00
   2   38   62    11     8    1.6386E+03 -1.0150E+02   1.7401E+03  0.000E+00  0.000E+00  0.000E+00  1.96302E+03  1.800E-02  3.000E+00  6.750E+02  0.000E+00  0.000E+00
   2   51   11    12     1    0.0000E+00 -3.5575E+02   3.5575E+02  0.000E+00  0.000E+00  0.000E+00  2.38700E+03  3.821E-03  3.000E+00  1.909E+03  0.000E+00  0.000E+00
   2   50   12    12     2    3.5575E+02 -5.2145E+01   4.0790E+02  0.000E+00  0.000E+00  0.000E+00  2.37501E+03  5.762E-03  3.000E+00  1.630E+03  0.000E+00  0.000E+00
   2   49   12    12     3    4.0790E+02 -3.6408E+02   7.7198E+02  0.000E+00  0.000E+00  0.000E+00  2.36501E+03  7.817E-03  3.000E+00  1.630E+03  0.000E+00  0.000E+00
   2   48   13    12     4    7.7198E+02 -1.4926E+02   9.2124E+02  0.000E+00  0.000E+00  0.000E+00  2.35601E+03  1.042E-02  3.000E+00  1.630E+03  0.000E+00  0.000E+00
   2   48   14    12     5    9.2124E+02 -1.5900E+02   1.0802E+03  0.000E+00  0.000E+00  0.000E+00  2.35001E+03  1.130E-02  3.000E+00  1.630E+03  0.000E+00  0.000E+00
   2   47   15    12     6    1.0802E+03 -1.4392E+02   1.2242E+03  0.000E+00  0.000E+00  0.000E+00  2.34001E+03  1.254E-02  3.000E+00  1.630E+03  0.000E+00  0.000E+00
   2   47   16    12     7    1.2242E+03 -1.3402E+02   1.3582E+03  0.000E+00  0.000E+00  0.000E+00  2.33501E+03  1.473E-02  3.000E+00  1.630E+03  0.000E+00  0.000E+00
   2   46   17    12     8    1.3582E+03  9.2493E+01   1.2657E+03  0.000E+00  0.000E+00  0.000E+00  2.32901E+03  1.384E-02  3.000E+00  1.630E+03  0.000E+00  0.000E+00
   2   46   18    12     9    1.2657E+03  1.7026E+02   1.0954E+03  0.000E+00  0.000E+00  0.000E+00  2.32101E+03  1.058E-02  3.000E+00  1.350E+03  0.000E+00  0.000E+00
   2   46   19    12    10    1.0954E+03 -4.4582E+02   1.5412E+03  0.000E+00  0.000E+00  0.000E+00  2.30601E+03  1.285E-02  3.000E+00  1.350E+03  0.000E+00  0.000E+00
   2   46   20    12    11    1.5412E+03  7.6795E+02   7.7330E+02  0.000E+00  0.000E+00  0.000E+00  2.30601E+03  1.002E-02  3.000E+00  1.630E+03  0.000E+00  0.000E+00
   2   45   21    12    12    7.7330E+02 -3.1228E+02   1.0856E+03  0.000E+00  0.000E+00  0.000E+00  2.27401E+03  7.785E-03  3.000E+00  1.909E+03  0.000E+00  0.000E+00
   2   44   22    12    13    1.0856E+03 -1.6906E+02   1.2546E+03  0.000E+00  0.000E+00  0.000E+00  2.25001E+03  9.676E-03  3.000E+00  1.909E+03  0.000E+00  0.000E+00
   2   43   23    12    14    1.2546E+03  1.6977E+02   1.0849E+03  0.000E+00  0.000E+00  0.000E+00  2.23101E+03  9.743E-03  3.000E+00  1.909E+03  0.000E+00  0.000E+00
   2   42   24    12    15    1.0849E+03 -7.0754E+01   1.1556E+03  0.000E+00  0.000E+00  0.000E+00  2.20801E+03  9.916E-03  3.000E+00  1.630E+03  0.000E+00  0.000E+00
   2   42   25    12    16    1.1556E+03  1.7491E+01   1.1381E+03  0.000E+00  0.000E+00  0.000E+00  2.20001E+03  1.084E-02  3.000E+00  1.350E+03  0.000E+00  0.000E+00
   2   42   26    12    17    1.1381E+03  1.4652E+02   9.9161E+02  0.000E+00  0.000E+00  0.000E+00  2.18801E+03  9.181E-03  3.000E+00  1.350E+03  0.000E+00  0.000E+00
   2   42   27    12    18    9.9161E+02 -2.5753E+02   1.2491E+03  0.000E+00  0.000E+00  0.000E+00  2.17001E+03  9.562E-03  3.000E+00  1.350E+03  0.000E+00  0.000E+00
   2   42   28    12    19    1.2491E+03 -8.8169E+01   1.3373E+03  0.000E+00  0.000E+00  0.000E+00  2.15901E+03  1.114E-02  3.000E+00  1.630E+03  0.000E+00  0.000E+00
   2   41   29    12    20    1.3373E+03  1.7571E+02   1.1616E+03  0.000E+00  0.000E+00  0.000E+00  2.14201E+03  1.100E-02  3.000E+00  1.909E+03  0.000E+00  0.000E+00
   2   40   30    12    21    1.1616E+03  1.0546E+02   1.0561E+03  0.000E+00  0.000E+00  0.000E+00  2.12701E+03  1.077E-02  3.000E+00  1.909E+03  0.000E+00  0.000E+00
   2   39   31    12    22    1.0561E+03  1.1455E+02   9.4159E+02  0.000E+00  0.000E+00  0.000E+00  2.11501E+03  1.048E-02  3.000E+00  1.909E+03  1.147E+02 -1.297E-01
   2   38   32    12    23    9.4159E+02  1.1455E+02   8.2704E+02  0.000E+00  0.000E+00  0.000E+00  2.10301E+03  9.512E-03  3.000E+00  1.909E+03  6.527E+01  4.928E+01
   2   37   33    12    24    8.2704E+02  5.0904E+02   3.1800E+02  0.000E+00  0.000E+00  0.000E+00  2.08901E+03  7.328E-03  3.000E+00  1.909E+03  0.000E+00  0.000E+00
   2   36   34    12    25    3.1800E+02 -5.2843E+01   3.7085E+02  0.000E+00  0.000E+00  0.000E+00  2.07700E+03  4.613E-03  3.000E+00  9.546E+02  0.000E+00  0.000E+00
   2   38   62    13     1    1.8985E+03 -1.0359E+02   2.0021E+03  0.000E+00  0.000E+00  0.000E+00  1.96301E+03  1.491E-02  3.000E+00  6.750E+02  0.000E+00  0.000E+00
   2   38   63    13     2    2.0021E+03 -7.8825E+01   2.0809E+03  0.000E+00  0.000E+00  0.000E+00  1.96400E+03  9.978E-01  3.000E+00  1.350E+03  0.000E+00  0.000E+00
   2   38   64    13     3    2.0809E+03 -3.7959E+01   2.1189E+03  0.000E+00  0.000E+00  0.000E+00  1.96401E+03  1.015E+00  3.000E+00  1.350E+03  0.000E+00  0.000E+00
   2   38   65    13     4    2.1189E+03  3.3385E+01   2.0855E+03  0.000E+00  0.000E+00  0.000E+00  1.96303E+03  2.755E-02  3.000E+00  6.750E+02  0.000E+00  0.000E+00
   2   46   61    14     1    0.0000E+00  0.0000E+00   0.0000E+00  0.000E+00  0.000E+00  0.000E+00  2.01700E+03  0.000E+00  3.000E+00  1.350E+03  0.000E+00  0.000E+00
   2   45   61    14     2    0.0000E+00  0.0000E+00   0.0000E+00  0.000E+00  0.000E+00  0.000E+00  2.01000E+03  0.000E+00  3.000E+00  1.350E+03  0.000E+00  0.000E+00
   2   44   61    14     3    0.0000E+00  0.0000E+00   0.0000E+00  0.000E+00  0.000E+00  0.000E+00  2.00600E+03  0.000E+00  3.000E+00  1.350E+03  0.000E+00  0.000E+00
   2   43   61    14     4    0.0000E+00  0.0000E+00   0.0000E+00  0.000E+00  0.000E+00  0.000E+00  1.99900E+03  0.000E+00  3.000E+00  1.350E+03  0.000E+00  0.000E+00
   2   42   61    14     5    0.0000E+00  0.0000E+00   0.0000E+00  0.000E+00  0.000E+00  0.000E+00  1.99300E+03  0.000E+00  3.000E+00  1.350E+03  0.000E+00  0.000E+00
   2   41   61    14     6    0.0000E+00  0.0000E+00   0.0000E+00  0.000E+00  0.000E+00  0.000E+00  1.98500E+03  0.000E+00  3.000E+00  1.350E+03  0.000E+00  0.000E+00
   2   40   61    14     7    0.0000E+00  0.0000E+00   0.0000E+00  0.000E+00  0.000E+00  0.000E+00  1.97800E+03  0.000E+00  3.000E+00  1.350E+03  0.000E+00  0.000E+00
   2   39   61    14     8    0.0000E+00  0.0000E+00   0.0000E+00  0.000E+00  0.000E+00  0.000E+00  1.97300E+03  0.000E+00  3.000E+00  1.630E+03  0.000E+00  0.000E+00
   2   38   62    14     9    0.0000E+00 -1.5842E+02   1.5842E+02  0.000E+00  0.000E+00  0.000E+00  1.96300E+03  2.420E-03  3.000E+00  9.546E+02  0.000E+00  0.000E+00
   2   39   70    15     1    2.3543E+03 -9.7404E-01   2.3553E+03  0.000E+00  0.000E+00  0.000E+00  1.94602E+03  1.622E-02  3.000E+00  6.750E+02  0.000E+00  0.000E+00
   2   40   75    16     1    1.5000E+04 -2.4513E+01   1.5024E+04  0.000E+00  0.000E+00  0.000E+00  1.93406E+03  6.245E-02  3.000E+00  6.750E+02  0.000E+00  0.000E+00
   2   40   76    16     2    1.5024E+04  0.0000E+00   1.5024E+04  0.000E+00  0.000E+00  0.000E+00  1.93309E+03  8.966E-02  3.000E+00  0.000E+00  0.000E+00  0.000E+00
   2   55   73    17     1    0.0000E+00  0.0000E+00   0.0000E+00  0.000E+00  0.000E+00  0.000E+00  2.04100E+03  0.000E+00  3.000E+00  1.350E+03  0.000E+00  0.000E+00
   2   54   73    17     2    0.0000E+00  0.0000E+00   0.0000E+00  0.000E+00  0.000E+00  0.000E+00  2.02900E+03  0.000E+00  3.000E+00  1.350E+03  0.000E+00  0.000E+00
   2   53   73    17     3    0.0000E+00  0.0000E+00   0.0000E+00  0.000E+00  0.000E+00  0.000E+00  2.01700E+03  0.000E+00  3.000E+00  1.350E+03  0.000E+00  0.000E+00
   2   52   73    17     4    0.0000E+00  0.0000E+00   0.0000E+00  0.000E+00  0.000E+00  0.000E+00  2.01000E+03  0.000E+00  3.000E+00  1.630E+03  0.000E+00  0.000E+00
   2   51   72    17     5    0.0000E+00  0.0000E+00   0.0000E+00  0.000E+00  0.000E+00  0.000E+00  1.99800E+03  0.000E+00  3.000E+00  1.630E+03  0.000E+00  0.000E+00
   2   50   72    17     6    0.0000E+00 -4.0843E+01   4.0843E+01  0.000E+00  0.000E+00  0.000E+00  1.97500E+03  1.127E-03  3.000E+00  1.350E+03  0.000E+00  0.000E+00
   2   49   72    17     7    4.0843E+01  0.0000E+00   4.0843E+01  0.000E+00  0.000E+00  0.000E+00  1.95600E+03  1.626E-03  3.000E+00  0.000E+00  0.000E+00  0.000E+00
   2   48   72    17     8    4.0843E+01  0.0000E+00   4.0843E+01  0.000E+00  0.000E+00  0.000E+00  1.95200E+03  1.624E-03  3.000E+00  0.000E+00  0.000E+00  0.000E+00
   2   47   72    17     9    4.0843E+01  0.0000E+00   4.0843E+01  0.000E+00  0.000E+00  0.000E+00  1.95000E+03  1.670E-03  3.000E+00  0.000E+00  0.000E+00  0.000E+00
   2   46   72    17    10    4.0843E+01  0.0000E+00   4.0843E+01  0.000E+00  0.000E+00  0.000E+00  1.94800E+03  1.699E-03  3.000E+00  0.000E+00  0.000E+00  0.000E+00
   2   45   72    17    11    4.0843E+01  0.0000E+00   4.0843E+01  0.000E+00  0.000E+00  0.000E+00  1.94400E+03  1.732E-03  3.000E+00  0.000E+00  0.000E+00  0.000E+00
   2   44   73    17    12    4.0843E+01  0.0000E+00   4.0843E+01  0.000E+00  0.000E+00  0.000E+00  1.94200E+03  1.761E-03  3.000E+00  0.000E+00  0.000E+00  0.000E+00
   2   43   73    17    13    4.0843E+01  0.0000E+00   4.0843E+01  0.000E+00  0.000E+00  0.000E+00  1.94200E+03  1.925E-03  3.000E+00  0.000E+00  0.000E+00  0.000E+00
   2   42   73    17    14    4.0843E+01  0.0000E+00   4.0843E+01  0.000E+00  0.000E+00  0.000E+00  1.94100E+03  1.963E-03  3.000E+00  0.000E+00  0.000E+00  0.000E+00
   2   34   45    18     1    8.2201E-05 -5.1471E+01   5.1471E+01  0.000E+00  0.000E+00  0.000E+00  2.01790E+03  1.547E-03  3.000E+00  1.630E+03  0.000E+00  0.000E+00
   2   34   46    18     2    5.1471E+01 -6.9999E+01   1.2147E+02  0.000E+00  0.000E+00  0.000E+00  2.01100E+03  2.921E-03  3.000E+00  1.350E+03  0.000E+00  0.000E+00
   2   34   47    18     3    1.2147E+02  4.4956E+00   1.1697E+02  0.000E+00  0.000E+00  0.000E+00  2.00700E+03  2.787E-03  3.000E+00  6.750E+02  0.000E+00  0.000E+00
   2   41   74    19     1    1.4256E+04 -1.9267E+02   1.4449E+04  0.000E+00  0.000E+00  0.000E+00  1.93807E+03  6.745E-02  3.000E+00  1.909E+03  0.000E+00  0.000E+00
   2   40   75    19     2    1.4449E+04 -2.9595E+01   1.4479E+04  0.000E+00  0.000E+00  0.000E+00  1.93407E+03  6.776E-02  3.000E+00  9.546E+02  0.000E+00  0.000E+00
   2   39   66    20     1    0.0000E+00  0.0000E+00   0.0000E+00  0.000E+00  0.000E+00  0.000E+00  1.96250E+03  0.000E+00  1.500E+00  8.148E+02  0.000E+00  0.000E+00
   2   39   67    20     2    0.0000E+00  0.0000E+00   0.0000E+00  0.000E+00  0.000E+00  0.000E+00  1.96225E+03  0.000E+00  1.500E+00  6.750E+02  0.000E+00  0.000E+00
   2   40   68    20     3    0.0000E+00  0.0000E+00   0.0000E+00  0.000E+00  0.000E+00  0.000E+00  1.96200E+03  0.000E+00  1.500E+00  9.546E+02  0.000E+00  0.000E+00
   2   41   69    20     4    0.0000E+00  0.0000E+00   0.0000E+00  0.000E+00  0.000E+00  0.000E+00  1.96175E+03  0.000E+00  1.500E+00  8.148E+02  0.000E+00  0.000E+00
   2   42   69    20     5    0.0000E+00  0.0000E+00   0.0000E+00  0.000E+00  0.000E+00  0.000E+00  1.96150E+03  0.000E+00  1.500E+00  8.148E+02  0.000E+00  0.000E+00
   2   43   70    20     6    0.0000E+00  0.0000E+00   0.0000E+00  0.000E+00  0.000E+00  0.000E+00  1.96125E+03  0.000E+00  1.500E+00  8.148E+02  0.000E+00  0.000E+00
   2   38   66    21     1    2.0855E+03 -6.8485E+01   2.1540E+03  0.000E+00  0.000E+00  0.000E+00  1.96002E+03  2.375E-02  3.000E+00  1.350E+03  0.000E+00  0.000E+00
   2   38   67    21     2    2.1540E+03  3.1769E+01   2.1222E+03  0.000E+00  0.000E+00  0.000E+00  1.95802E+03  2.284E-02  3.000E+00  1.630E+03  0.000E+00  0.000E+00
   2   39   68    21     3    2.1222E+03 -8.9182E+00   2.1311E+03  0.000E+00  0.000E+00  0.000E+00  1.95302E+03  2.045E-02  3.000E+00  1.630E+03  0.000E+00  0.000E+00
   2   39   69    21     4    2.1311E+03 -2.0815E+02   2.3393E+03  0.000E+00  0.000E+00  0.000E+00  1.94802E+03  2.217E-02  3.000E+00  1.350E+03  0.000E+00  0.000E+00
   2   39   70    21     5    2.3393E+03  1.1553E+00   2.3381E+03  0.000E+00  0.000E+00  0.000E+00  1.94602E+03  1.938E-02  3.000E+00  6.750E+02  0.000E+00  0.000E+00
   2   38   71    22     1    2.3553E+03 -4.9752E+01   2.4051E+03  0.000E+00  0.000E+00  0.000E+00  1.94554E+03  4.366E-02  3.000E+00  3.259E+02  0.000E+00  0.000E+00
   2   38   72    22     2    2.4051E+03 -3.2634E+01   2.4377E+03  0.000E+00  0.000E+00  0.000E+00  1.94504E+03  4.412E-02  3.000E+00  3.259E+02  0.000E+00  0.000E+00
   2   39   73    22     3    2.4377E+03  9.7776E+01   2.3399E+03  0.000E+00  0.000E+00  0.000E+00  1.94454E+03  4.376E-02  3.000E+00  3.259E+02  9.975E+01 -1.972E+00
   2   39   74    22     4    2.3399E+03  8.1000E+01   2.2589E+03  0.000E+00  0.000E+00  0.000E+00  1.94404E+03  4.042E-02  3.000E+00  2.700E+02  4.746E+01  3.354E+01
   2   39   75    22     5    2.2589E+03  8.1000E+01   2.1779E+03  0.000E+00  0.000E+00  0.000E+00  1.94354E+03  3.956E-02  3.000E+00  2.700E+02  1.150E+01  6.950E+01
   2   39   76    22     6    2.1779E+03  0.0000E+00   2.1779E+03  0.000E+00  0.000E+00  0.000E+00  1.94304E+03  3.913E-02  3.000E+00  0.000E+00  0.000E+00  0.000E+00
   2   39   71    23     1    0.0000E+00 -1.8133E+02   1.8133E+02  0.000E+00  0.000E+00  0.000E+00  1.94200E+03  3.793E-03  3.000E+00  1.630E+03  0.000E+00  0.000E+00
   2   40   72    23     2    1.8133E+02 -6.9392E+01   2.5073E+02  0.000E+00  0.000E+00  0.000E+00  1.94101E+03  6.827E-03  3.000E+00  1.630E+03  0.000E+00  0.000E+00
   2   40   73    23     3    2.5073E+02 -1.4768E+02   3.9841E+02  0.000E+00  0.000E+00  0.000E+00  1.93801E+03  7.704E-03  3.000E+00  1.350E+03  0.000E+00  0.000E+00
   2   40   74    23     4    3.9841E+02 -6.2400E+01   4.6081E+02  0.000E+00  0.000E+00  0.000E+00  1.93601E+03  9.747E-03  3.000E+00  1.350E+03  0.000E+00  0.000E+00
   2   40   75    23     5    4.6081E+02 -6.0352E+01   5.2116E+02  0.000E+00  0.000E+00  0.000E+00  1.93401E+03  9.350E-03  3.000E+00  6.750E+02  0.000E+00  0.000E+00



1
  VOLUMETRIC BUDGET FOR UNSATURATED ZONE BENEATH STREAMS AT END OF TIME STEP     1 STRESS PERIOD   2
  ------------------------------------------------------------------------------------------------

    CUMULATIVE VOLUMES             L**3    RATES FOR THIS TIME STEP         L**3/T
    ------------------                     ------------------------


          STREAM LOSS =          991.7380            STREAM LOSS =          702.4215
    CHANGE IN STORAGE =          361.8565      CHANGE IN STORAGE =          361.8565
       RECHARGE TO GW =          629.8816         RECHARGE TO GW =          340.5650

             TOTAL IN =          991.7380               TOTAL IN =          702.4215

            TOTAL OUT =          991.7381              TOTAL OUT =          702.4215

             IN - OUT =       -6.1035E-05               IN - OUT =            0.0000

  PERCENT DISCREPANCY =           -0.00      PERCENT DISCREPANCY =             0.00



 ***WARNING***NUZTOP IS 3 AND ALL LAYERS  IN ROW           39  AND COLUMN 
          76  ARE INACTIVE.
 UNSATURATED FLOW WILL NOT BE ADDED TO ANY LAYER-- SOME WATER MAY FLOW PAST
  LOWEST LAYER
 ***WARNING***NUZTOP IS 3 AND ALL LAYERS  IN ROW           40  AND COLUMN 
          76  ARE INACTIVE.
 UNSATURATED FLOW WILL NOT BE ADDED TO ANY LAYER-- SOME WATER MAY FLOW PAST
  LOWEST LAYER


UNSATURATED ZONE PACKAGE VOLUMETRIC BUDGET FOR  TIME STEP     1 STRESS PERIOD    2
  ------------------------------------------------------------------------------



     CUMULATIVE VOLUMES      L**3       RATES FOR THIS TIME STEP      L**3/T
     ------------------                 ------------------------

           IN:                                      IN:
           ---                                      ---
        INFILTRATION =       26039.6903          INFILTRATION =       0.0000E+00

          OUT:                                     OUT:
          ----                                     ----
              UZF ET =       29200.2891                UZF ET =       29200.2891
        UZF RECHARGE =       58122.0182          UZF RECHARGE =       32082.3279

            IN - OUT =      -61282.6170              IN - OUT =      -61282.6170

          STORAGE:                                 STORAGE:
          --------                                 --------
      STORAGE CHANGE =      -60967.4245        STORAGE CHANGE =      -60967.4245

 PERCENT DISCREPANCY IS DIFFERENCE BETWEEN IN-OUT MINUS CHANGE IN STORAGE
 DIVIDED BY THE AVERAGE OF IN AND OUT TIMES 100

 PERCENT DISCREPANCY =          -0.09     PERCENT DISCREPANCY =          -0.51






1
  VOLUMETRIC BUDGET FOR ENTIRE MODEL AT END OF TIME STEP    1, STRESS PERIOD   2
  ------------------------------------------------------------------------------

     CUMULATIVE VOLUMES      L**3       RATES FOR THIS TIME STEP      L**3/T
     ------------------                 ------------------------

           IN:                                      IN:
           ---                                      ---
             STORAGE     =          64.9485               STORAGE     =          64.9485
       CONSTANT HEAD     =          10.3966         CONSTANT HEAD     =           5.0965
      STREAM LEAKAGE     =        8676.7783        STREAM LEAKAGE     =        4600.7505
       LAKE  SEEPAGE     =         692.9791         LAKE  SEEPAGE     =         340.7958
        UZF RECHARGE     =       58135.3945          UZF RECHARGE     =       32082.3340
               GW ET     =           0.0000                 GW ET     =           0.0000
     SURFACE LEAKAGE     =           0.0000       SURFACE LEAKAGE     =           0.0000

                TOTAL IN =       67580.5000                  TOTAL IN =       37093.9258

          OUT:                                     OUT:
          ----                                     ----
             STORAGE     =       20516.0332               STORAGE     =       20516.0332
       CONSTANT HEAD     =         123.6803         CONSTANT HEAD     =          62.7760
      STREAM LEAKAGE     =       18530.5234        STREAM LEAKAGE     =       11294.1738
       LAKE  SEEPAGE     =        5283.1826         LAKE  SEEPAGE     =        2640.4087
        UZF RECHARGE     =           0.0000          UZF RECHARGE     =           0.0000
               GW ET     =       22804.0742                 GW ET     =        2407.6133
     SURFACE LEAKAGE     =         380.3040       SURFACE LEAKAGE     =         246.1463

               TOTAL OUT =       67637.7969                 TOTAL OUT =       37167.1484

                IN - OUT =         -57.2969                  IN - OUT =         -73.2227

     PERCENT DISCREPANCY =          -0.08         PERCENT DISCREPANCY =          -0.20






         TIME SUMMARY AT END OF TIME STEP    1 IN STRESS PERIOD    2
                    SECONDS     MINUTES      HOURS       DAYS        YEARS
                    -----------------------------------------------------------
   TIME STEP LENGTH  86400.      1440.0      24.000      1.0000     2.73785E-03
 STRESS PERIOD TIME  86400.      1440.0      24.000      1.0000     2.73785E-03
         TOTAL TIME 1.72800E+05  2880.0      48.000      2.0000     5.47570E-03
1
                                                   Max.-Head-Change                         Max.-Flux-Residual
  Residual-Control   Outer-Iter.   Inner-Iter.     Column Row Layer    Maximum-Head-Change  Column Row Layer    Maximum-Flux-Residual          L2-NORM 
          0                 1           4            71   19     2       0.2259114565E+01      33   37    2         0.4874508980E+03      0.9124135273E+03
          0                 2           3            49   22     2       0.3192319138E+01      69   36    2        -0.1109668128E+03      0.2719377515E+03
          0                 3           3            49   22     2      -0.1863957257E+00      54   34    2        -0.7514450312E+02      0.1335711827E+03
          0                 4           3            67   25     2       0.3115249482E-01      67   25    2         0.3553527540E+02      0.5132049019E+02
          0                 5           2            67   25     2       0.1305629795E-01      67   25    2         0.1489235349E+02      0.2226137853E+02
          0                 6           2            67   25     2       0.5063271589E-02      67   25    2         0.5774993430E+01      0.8552804312E+01
          0                 7           2            67   25     2       0.1886339632E-02      67   25    2         0.2151393144E+01      0.3103393497E+01
          0                 8           1            67   25     2       0.6871585785E-03      67   25    2         0.7836699169E+00      0.1098362554E+01
          0                 9           1            67   25     2       0.2470613551E-03      67   25    2         0.2817476408E+00      0.3851735968E+00
          0                10           1            67   25     2       0.8812748775E-04      67   25    2         0.1004970448E+00      0.1349977100E+00

    ------------------------------------------------
       NWT REQUIRED           10 OUTER ITERATIONS 
       AND A TOTAL OF         22 INNER ITERATIONS.
    ------------------------------------------------
                                                   Max.-Head-Change                         Max.-Flux-Residual
  Residual-Control   Outer-Iter.   Inner-Iter.     Column Row Layer    Maximum-Head-Change  Column Row Layer    Maximum-Flux-Residual          L2-NORM 
          0                 1           2            71   39     2      -0.1562612649E-02      71   39    2        -0.2457882935E+01      0.3610281774E+01
          0                 2           1            49   23     2      -0.9195904747E-03      71   39    2         0.1792081237E+00      0.2790832172E+00
          0                 3           2            49   23     2       0.1758638989E-02      55   35    2        -0.1025053168E+00      0.2916858621E+00
          0                 4           1            49   23     2       0.1771844879E-03      55   35    2         0.1257656740E+00      0.1821890219E+00
          0                 5           1            55   35     2       0.4522512435E-04      55   35    2         0.6650765121E-01      0.1014396027E+00

    ------------------------------------------------
       NWT REQUIRED            5 OUTER ITERATIONS 
       AND A TOTAL OF          7 INNER ITERATIONS.
    ------------------------------------------------
                                                   Max.-Head-Change                         Max.-Flux-Residual
  Residual-Control   Outer-Iter.   Inner-Iter.     Column Row Layer    Maximum-Head-Change  Column Row Layer    Maximum-Flux-Residual          L2-NORM 
          0                 1           1            49   23     2      -0.1030652478E-02      67   25    2         0.2680545031E-01      0.1332092699E+00
          0                 2           1            49   23     2      -0.9259648763E-03      55   35    2        -0.8271141604E-01      0.1828282005E+00
          0                 3           2            49   23     2       0.1759054639E-02      55   35    2        -0.1135277915E+00      0.2936590910E+00
          0                 4           1            49   23     2       0.1772232292E-03      55   35    2         0.1067815896E+00      0.1593543359E+00
          0                 5           1            55   35     2       0.4108913706E-04      55   35    2         0.7351452176E-01      0.1084063878E+00

    ------------------------------------------------
       NWT REQUIRED            5 OUTER ITERATIONS 
       AND A TOTAL OF          6 INNER ITERATIONS.
    ------------------------------------------------

 OUTPUT CONTROL FOR STRESS PERIOD    2   TIME STEP    2
    PRINT BUDGET



 STREAM LISTING     PERIOD      2   STEP        2

 LAYER ROW COL. STREAM  RCH.   FLOW INTO    STREAM     FLOW OUT OF   OVRLND.    DIRECT     STREAM      STREAM      STREAM     STREAM  STREAMBED   FLOW TO   CHNG. UNSAT. 
                SEG.NO.  NO.   STRM. RCH.    LOSS       STRM. RCH.   RUNOFF     PRECIP       ET         HEAD        DEPTH      WIDTH  CONDCTNC.   WAT. TAB.

   2   18   62     1     1    0.0000E+00  0.0000E+00   0.0000E+00  0.000E+00  0.000E+00  0.000E+00  2.07300E+03  0.000E+00  3.000E+00  1.909E+03  0.000E+00  0.000E+00
   2   19   63     1     2    0.0000E+00  0.0000E+00   0.0000E+00  0.000E+00  0.000E+00  0.000E+00  2.06300E+03  0.000E+00  3.000E+00  1.909E+03  0.000E+00  0.000E+00
   2   20   64     1     3    0.0000E+00 -7.1108E+01   7.1108E+01  0.000E+00  0.000E+00  0.000E+00  2.05400E+03  1.663E-03  3.000E+00  1.630E+03  0.000E+00  0.000E+00
   2   21   64     1     4    7.1108E+01 -7.1904E+01   1.4301E+02  0.000E+00  0.000E+00  0.000E+00  2.05100E+03  3.967E-03  3.000E+00  1.630E+03  0.000E+00  0.000E+00
   2   22   65     1     5    1.4301E+02 -7.1285E+00   1.5014E+02  0.000E+00  0.000E+00  0.000E+00  2.04800E+03  4.080E-03  3.000E+00  9.546E+02  0.000E+00  0.000E+00
   2   20   66     2     1    0.0000E+00  0.0000E+00   0.0000E+00  0.000E+00  0.000E+00  0.000E+00  2.05300E+03  0.000E+00  3.000E+00  1.909E+03  0.000E+00  0.000E+00
   2   21   65     2     2    0.0000E+00  0.0000E+00   0.0000E+00  0.000E+00  0.000E+00  0.000E+00  2.05100E+03  0.000E+00  3.000E+00  1.630E+03  0.000E+00  0.000E+00
   2   22   65     2     3    0.0000E+00 -7.5191E+00   7.5191E+00  0.000E+00  0.000E+00  0.000E+00  2.04800E+03  4.083E-04  3.000E+00  6.750E+02  0.000E+00  0.000E+00
   2   22   65     3     1    1.5766E+02 -5.1762E+00   1.6284E+02  0.000E+00  0.000E+00  0.000E+00  2.04800E+03  3.879E-03  3.000E+00  6.750E+02  0.000E+00  0.000E+00
   2   23   65     3     2    1.6284E+02 -6.5451E+01   2.2829E+02  0.000E+00  0.000E+00  0.000E+00  2.04501E+03  7.011E-03  3.000E+00  1.630E+03  0.000E+00  0.000E+00
   2   24   66     3     3    2.2829E+02  6.7612E+01   1.6067E+02  0.000E+00  0.000E+00  0.000E+00  2.04524E+03  2.434E-01  3.000E+00  1.909E+03  0.000E+00  0.000E+00
   2   25   67     3     4    1.6067E+02  1.6067E+02   0.0000E+00  0.000E+00  0.000E+00  0.000E+00  2.04500E+03  1.470E-03  3.000E+00  1.909E+03  0.000E+00  0.000E+00
   2   26   68     3     5    0.0000E+00  0.0000E+00   0.0000E+00  0.000E+00  0.000E+00  0.000E+00  2.04200E+03  0.000E+00  3.000E+00  1.630E+03  0.000E+00  0.000E+00
   2   27   68     3     6    0.0000E+00  0.0000E+00   0.0000E+00  0.000E+00  0.000E+00  0.000E+00  2.04100E+03  0.000E+00  3.000E+00  1.630E+03  0.000E+00  0.000E+00
   2   28   69     3     7    0.0000E+00  0.0000E+00   0.0000E+00  0.000E+00  0.000E+00  0.000E+00  2.03600E+03  0.000E+00  3.000E+00  1.630E+03  0.000E+00  0.000E+00
   2   29   69     3     8    0.0000E+00  0.0000E+00   0.0000E+00  0.000E+00  0.000E+00  0.000E+00  2.02900E+03  0.000E+00  3.000E+00  1.350E+03  0.000E+00  0.000E+00
   2   30   69     3     9    0.0000E+00  0.0000E+00   0.0000E+00  0.000E+00  0.000E+00  0.000E+00  2.02300E+03  0.000E+00  3.000E+00  1.630E+03  0.000E+00  0.000E+00
   2   31   70     3    10    0.0000E+00  0.0000E+00   0.0000E+00  0.000E+00  0.000E+00  0.000E+00  2.01100E+03  0.000E+00  3.000E+00  1.630E+03  0.000E+00  0.000E+00
   2   32   70     3    11    0.0000E+00 -4.7245E+01   4.7245E+01  0.000E+00  0.000E+00  0.000E+00  2.00500E+03  1.389E-03  3.000E+00  1.350E+03  0.000E+00  0.000E+00
   2   33   70     3    12    4.7245E+01  4.7245E+01   0.0000E+00  0.000E+00  0.000E+00  0.000E+00  2.00300E+03  3.867E-04  3.000E+00  1.630E+03  0.000E+00  4.725E+01
   2   34   69     3    13    0.0000E+00  0.0000E+00   0.0000E+00  0.000E+00  0.000E+00  0.000E+00  1.98600E+03  0.000E+00  3.000E+00  1.630E+03  0.000E+00  0.000E+00
   2   35   69     3    14    0.0000E+00 -1.1611E+02   1.1611E+02  0.000E+00  0.000E+00  0.000E+00  1.97300E+03  1.838E-03  3.000E+00  1.350E+03  0.000E+00  0.000E+00
   2   36   69     3    15    1.1611E+02  6.9830E+01   4.6281E+01  0.000E+00  0.000E+00  0.000E+00  1.96700E+03  2.463E-03  3.000E+00  1.350E+03  0.000E+00  0.000E+00
   2   37   69     3    16    4.6281E+01  4.6281E+01   0.0000E+00  0.000E+00  0.000E+00  0.000E+00  1.95900E+03  3.956E-04  3.000E+00  1.350E+03  0.000E+00  0.000E+00
   2   38   69     3    17    0.0000E+00  0.0000E+00   0.0000E+00  0.000E+00  0.000E+00  0.000E+00  1.95300E+03  0.000E+00  3.000E+00  1.630E+03  0.000E+00  0.000E+00
   2   39   70     3    18    0.0000E+00 -1.7267E+01   1.7267E+01  0.000E+00  0.000E+00  0.000E+00  1.94600E+03  6.220E-04  3.000E+00  9.546E+02  0.000E+00  0.000E+00
   2   25   49     4     1    0.0000E+00 -1.2247E+02   1.2247E+02  0.000E+00  0.000E+00  0.000E+00  2.03500E+03  2.043E-03  3.000E+00  1.909E+03  0.000E+00  0.000E+00
   2   26   50     4     2    1.2247E+02 -8.8853E+01   2.1132E+02  0.000E+00  0.000E+00  0.000E+00  2.02600E+03  4.046E-03  3.000E+00  1.909E+03  0.000E+00  0.000E+00
   2   27   51     4     3    2.1132E+02 -7.7896E+01   2.8922E+02  0.000E+00  0.000E+00  0.000E+00  2.01901E+03  5.364E-03  3.000E+00  1.630E+03  0.000E+00  0.000E+00
   2   28   51     4     4    2.8922E+02 -7.3844E+01   3.6306E+02  0.000E+00  0.000E+00  0.000E+00  2.01401E+03  6.641E-03  3.000E+00  1.630E+03  0.000E+00  0.000E+00
   2   29   52     4     5    3.6306E+02 -6.7859E+01   4.3092E+02  0.000E+00  0.000E+00  0.000E+00  2.00901E+03  7.472E-03  3.000E+00  1.630E+03  0.000E+00  0.000E+00
   2   30   52     4     6    4.3092E+02 -5.2305E+01   4.8323E+02  0.000E+00  0.000E+00  0.000E+00  2.00401E+03  7.685E-03  3.000E+00  1.350E+03  0.000E+00  0.000E+00
   2   31   52     4     7    4.8323E+02 -7.5147E+01   5.5837E+02  0.000E+00  0.000E+00  0.000E+00  1.99901E+03  9.249E-03  3.000E+00  1.350E+03  0.000E+00  0.000E+00
   2   32   52     4     8    5.5837E+02  1.5379E+01   5.4300E+02  0.000E+00  0.000E+00  0.000E+00  1.99701E+03  9.722E-03  3.000E+00  1.630E+03  0.000E+00  0.000E+00
   2   33   53     4     9    5.4300E+02  1.8918E+01   5.2408E+02  0.000E+00  0.000E+00  0.000E+00  1.99101E+03  9.356E-03  3.000E+00  1.909E+03  0.000E+00  0.000E+00
   2   34   54     4    10    5.2408E+02  4.8689E+02   3.7187E+01  0.000E+00  0.000E+00  0.000E+00  1.98701E+03  6.567E-03  3.000E+00  1.909E+03  0.000E+00  0.000E+00
   2   35   55     4    11    3.7187E+01  3.7187E+01   0.0000E+00  0.000E+00  0.000E+00  0.000E+00  1.98200E+03  3.946E-04  3.000E+00  1.630E+03  1.477E+01  2.241E+01
   2   36   55     4    12    0.0000E+00 -7.0223E+01   7.0223E+01  0.000E+00  0.000E+00  0.000E+00  1.97600E+03  1.490E-03  3.000E+00  6.750E+02  0.000E+00  0.000E+00
   2   35   37     5     1    3.9473E+03  0.0000E+00   3.9473E+03  0.000E+00  0.000E+00  0.000E+00  2.05402E+03  2.193E-02  3.000E+00  0.000E+00  0.000E+00  0.000E+00
   2   34   38     5     2    3.9473E+03  0.0000E+00   3.9473E+03  0.000E+00  0.000E+00  0.000E+00  2.04003E+03  2.700E-02  3.000E+00  0.000E+00  0.000E+00  0.000E+00
   2   33   39     5     3    3.9473E+03  0.0000E+00   3.9473E+03  0.000E+00  0.000E+00  0.000E+00  2.03203E+03  3.209E-02  3.000E+00  0.000E+00  0.000E+00  0.000E+00
   2   32   40     5     4    3.9473E+03  0.0000E+00   3.9473E+03  0.000E+00  0.000E+00  0.000E+00  2.03003E+03  3.170E-02  3.000E+00  0.000E+00  0.000E+00  0.000E+00
   2   32   41     5     5    3.9473E+03  0.0000E+00   3.9473E+03  0.000E+00  0.000E+00  0.000E+00  2.02603E+03  2.653E-02  3.000E+00  0.000E+00  0.000E+00  0.000E+00
   2   32   42     5     6    3.9473E+03  0.0000E+00   3.9473E+03  0.000E+00  0.000E+00  0.000E+00  2.02203E+03  3.118E-02  3.000E+00  0.000E+00  0.000E+00  0.000E+00
   2   32   43     5     7    3.9473E+03  0.0000E+00   3.9473E+03  0.000E+00  0.000E+00  0.000E+00  2.02003E+03  3.456E-02  3.000E+00  0.000E+00  0.000E+00  0.000E+00
   2   33   44     5     8    3.9473E+03  0.0000E+00   3.9473E+03  0.000E+00  0.000E+00  0.000E+00  2.01903E+03  3.460E-02  3.000E+00  0.000E+00  0.000E+00  0.000E+00
   2   34   47     6     1    1.1540E+02  3.6167E-01   1.1503E+02  0.000E+00  0.000E+00  0.000E+00  2.00700E+03  2.524E-03  3.000E+00  6.750E+02  0.000E+00  0.000E+00
   2   34   48     6     2    1.1503E+02 -1.2727E+02   2.4230E+02  0.000E+00  0.000E+00  0.000E+00  2.00100E+03  4.278E-03  3.000E+00  1.630E+03  0.000E+00  0.000E+00
   2   35   49     6     3    2.4230E+02 -2.5740E+02   4.9970E+02  0.000E+00  0.000E+00  0.000E+00  1.99401E+03  6.972E-03  3.000E+00  1.630E+03  0.000E+00  0.000E+00
   2   35   50     6     4    4.9970E+02 -1.8652E+02   6.8622E+02  0.000E+00  0.000E+00  0.000E+00  1.99001E+03  1.106E-02  3.000E+00  1.350E+03  0.000E+00  0.000E+00
   2   35   51     6     5    6.8622E+02  3.1563E+01   6.5466E+02  0.000E+00  0.000E+00  0.000E+00  1.98901E+03  1.193E-02  3.000E+00  1.630E+03  0.000E+00  0.000E+00
   2   36   52     6     6    6.5466E+02 -1.1319E+02   7.6784E+02  0.000E+00  0.000E+00  0.000E+00  1.98401E+03  1.094E-02  3.000E+00  1.630E+03  0.000E+00  0.000E+00
   2   36   53     6     7    7.6784E+02 -2.5280E+02   1.0206E+03  0.000E+00  0.000E+00  0.000E+00  1.98002E+03  1.601E-02  3.000E+00  1.630E+03  0.000E+00  0.000E+00
   2   37   54     6     8    1.0206E+03 -3.9570E+01   1.0602E+03  0.000E+00  0.000E+00  0.000E+00  1.98002E+03  1.839E-02  3.000E+00  1.909E+03  0.000E+00  0.000E+00
   2   36   55     6     9    1.0602E+03 -8.6918E+01   1.1471E+03  0.000E+00  0.000E+00  0.000E+00  1.97601E+03  1.447E-02  3.000E+00  9.546E+02  0.000E+00  0.000E+00
   2   36   34     7     1    1.3518E+03 -4.9481E+01   1.4013E+03  0.000E+00  0.000E+00  0.000E+00  2.07701E+03  1.059E-02  3.000E+00  9.546E+02  0.000E+00  0.000E+00
   2   35   35     7     2    1.4013E+03 -1.0561E+02   1.5069E+03  0.000E+00  0.000E+00  0.000E+00  2.06701E+03  1.442E-02  3.000E+00  1.630E+03  0.000E+00  0.000E+00
   2   35   36     7     3    1.5069E+03  4.0552E+01   1.4663E+03  0.000E+00  0.000E+00  0.000E+00  2.06201E+03  1.441E-02  3.000E+00  1.350E+03  0.000E+00  0.000E+00
   2   35   37     7     4    1.4663E+03 -6.1468E+01   1.5278E+03  0.000E+00  0.000E+00  0.000E+00  2.05401E+03  1.105E-02  3.000E+00  6.750E+02  0.000E+00  0.000E+00
   2   52   49     8     1    0.0000E+00 -1.8881E+02   1.8881E+02  0.000E+00  0.000E+00  0.000E+00  2.12100E+03  2.730E-03  3.000E+00  1.909E+03  0.000E+00  0.000E+00
   2   51   48     8     2    1.8881E+02 -2.3510E+02   4.2391E+02  0.000E+00  0.000E+00  0.000E+00  2.11701E+03  8.829E-03  3.000E+00  1.909E+03  0.000E+00  0.000E+00
   2   50   47     8     3    4.2391E+02  1.9719E+02   2.2673E+02  0.000E+00  0.000E+00  0.000E+00  2.11701E+03  7.090E-03  3.000E+00  1.630E+03  0.000E+00  0.000E+00
   2   49   47     8     4    2.2673E+02 -2.5980E+02   4.8653E+02  0.000E+00  0.000E+00  0.000E+00  2.10901E+03  7.006E-03  3.000E+00  1.630E+03  0.000E+00  0.000E+00
   2   48   46     8     5    4.8653E+02  2.7511E+01   4.5902E+02  0.000E+00  0.000E+00  0.000E+00  2.10701E+03  1.092E-02  3.000E+00  1.630E+03  0.000E+00  0.000E+00
   2   47   46     8     6    4.5902E+02  2.0285E+02   2.5617E+02  0.000E+00  0.000E+00  0.000E+00  2.10501E+03  8.731E-03  3.000E+00  1.350E+03  0.000E+00  0.000E+00
   2   46   46     8     7    2.5617E+02  8.1000E+01   1.7517E+02  0.000E+00  0.000E+00  0.000E+00  2.10301E+03  5.708E-03  3.000E+00  1.350E+03  6.330E+00  7.467E+01
   2   45   46     8     8    1.7517E+02  8.1000E+01   9.4168E+01  0.000E+00  0.000E+00  0.000E+00  2.09900E+03  3.495E-03  3.000E+00  1.350E+03  0.000E+00  8.100E+01
   2   44   46     8     9    9.4168E+01  8.1000E+01   1.3168E+01  0.000E+00  0.000E+00  0.000E+00  2.09100E+03  1.753E-03  3.000E+00  1.350E+03  0.000E+00  8.100E+01
   2   43   46     8    10    1.3168E+01  1.3168E+01   0.0000E+00  0.000E+00  0.000E+00  0.000E+00  2.08000E+03  1.698E-04  3.000E+00  1.350E+03  0.000E+00  1.317E+01
   2   42   46     8    11    0.0000E+00  0.0000E+00   0.0000E+00  0.000E+00  0.000E+00  0.000E+00  2.07200E+03  0.000E+00  3.000E+00  1.630E+03  0.000E+00  0.000E+00
   2   41   45     8    12    0.0000E+00  0.0000E+00   0.0000E+00  0.000E+00  0.000E+00  0.000E+00  2.06000E+03  0.000E+00  3.000E+00  1.630E+03  0.000E+00  0.000E+00
   2   40   45     8    13    0.0000E+00  0.0000E+00   0.0000E+00  0.000E+00  0.000E+00  0.000E+00  2.05400E+03  0.000E+00  3.000E+00  1.350E+03  0.000E+00  0.000E+00
   2   39   45     8    14    0.0000E+00  0.0000E+00   0.0000E+00  0.000E+00  0.000E+00  0.000E+00  2.04600E+03  0.000E+00  3.000E+00  1.350E+03  0.000E+00  0.000E+00
   2   38   45     8    15    0.0000E+00  0.0000E+00   0.0000E+00  0.000E+00  0.000E+00  0.000E+00  2.03500E+03  0.000E+00  3.000E+00  1.350E+03  0.000E+00  0.000E+00
   2   37   45     8    16    0.0000E+00  0.0000E+00   0.0000E+00  0.000E+00  0.000E+00  0.000E+00  2.02700E+03  0.000E+00  3.000E+00  1.630E+03  0.000E+00  0.000E+00
   2   36   46     8    17    0.0000E+00  0.0000E+00   0.0000E+00  0.000E+00  0.000E+00  0.000E+00  2.02100E+03  0.000E+00  3.000E+00  1.630E+03  0.000E+00  0.000E+00
   2   35   46     8    18    0.0000E+00  0.0000E+00   0.0000E+00  0.000E+00  0.000E+00  0.000E+00  2.01400E+03  0.000E+00  3.000E+00  1.630E+03  0.000E+00  0.000E+00
   2   34   47     8    19    0.0000E+00 -1.7541E+00   1.7541E+00  0.000E+00  0.000E+00  0.000E+00  2.00700E+03  1.505E-04  3.000E+00  9.546E+02  0.000E+00  0.000E+00
   2   37   26     9     1    0.0000E+00  0.0000E+00   0.0000E+00  0.000E+00  0.000E+00  0.000E+00  2.14700E+03  0.000E+00  3.000E+00  1.350E+03  0.000E+00  0.000E+00
   2   37   27     9     2    0.0000E+00  0.0000E+00   0.0000E+00  0.000E+00  0.000E+00  0.000E+00  2.13400E+03  0.000E+00  3.000E+00  1.350E+03  0.000E+00  0.000E+00
   2   37   28     9     3    0.0000E+00 -1.1485E+02   1.1485E+02  0.000E+00  0.000E+00  0.000E+00  2.12500E+03  1.932E-03  3.000E+00  1.630E+03  0.000E+00  0.000E+00
   2   36   29     9     4    1.1485E+02  1.1485E+02   0.0000E+00  0.000E+00  0.000E+00  0.000E+00  2.11500E+03  6.697E-04  3.000E+00  1.630E+03  0.000E+00  0.000E+00
   2   36   30     9     5    0.0000E+00 -5.5306E+01   5.5306E+01  0.000E+00  0.000E+00  0.000E+00  2.10700E+03  1.218E-03  3.000E+00  1.350E+03  0.000E+00  0.000E+00
   2   36   31     9     6    5.5306E+01 -1.8449E+02   2.3980E+02  0.000E+00  0.000E+00  0.000E+00  2.09800E+03  3.387E-03  3.000E+00  1.350E+03  0.000E+00  0.000E+00
   2   36   32     9     7    2.3980E+02 -1.3139E+02   3.7119E+02  0.000E+00  0.000E+00  0.000E+00  2.09101E+03  5.455E-03  3.000E+00  1.350E+03  0.000E+00  0.000E+00
   2   36   33     9     8    3.7119E+02 -1.3482E+02   5.0601E+02  0.000E+00  0.000E+00  0.000E+00  2.08401E+03  6.777E-03  3.000E+00  1.350E+03  0.000E+00  0.000E+00
   2   36   34     9     9    5.0601E+02 -3.8234E+01   5.4425E+02  0.000E+00  0.000E+00  0.000E+00  2.07701E+03  5.786E-03  3.000E+00  6.750E+02  0.000E+00  0.000E+00
   2   58   37    10     1    0.0000E+00  0.0000E+00   0.0000E+00  0.000E+00  0.000E+00  0.000E+00  2.15000E+03  0.000E+00  3.000E+00  1.350E+03  0.000E+00  0.000E+00
   2   57   37    10     2    0.0000E+00 -6.4028E+01   6.4028E+01  0.000E+00  0.000E+00  0.000E+00  2.14700E+03  1.836E-03  3.000E+00  1.630E+03  0.000E+00  0.000E+00
   2   56   38    10     3    6.4028E+01  6.4028E+01   0.0000E+00  0.000E+00  0.000E+00  0.000E+00  2.14300E+03  5.806E-04  3.000E+00  1.630E+03  0.000E+00  0.000E+00
   2   55   38    10     4    0.0000E+00 -1.7162E+02   1.7162E+02  0.000E+00  0.000E+00  0.000E+00  2.13800E+03  3.012E-03  3.000E+00  1.350E+03  0.000E+00  0.000E+00
   2   54   38    10     5    1.7162E+02 -1.1429E+02   2.8591E+02  0.000E+00  0.000E+00  0.000E+00  2.13501E+03  5.913E-03  3.000E+00  1.350E+03  0.000E+00  0.000E+00
   2   53   38    10     6    2.8591E+02 -1.0601E+02   3.9192E+02  0.000E+00  0.000E+00  0.000E+00  2.13201E+03  7.486E-03  3.000E+00  1.350E+03  0.000E+00  0.000E+00
   2   52   38    10     7    3.9192E+02 -1.6165E+02   5.5357E+02  0.000E+00  0.000E+00  0.000E+00  2.12901E+03  1.092E-02  3.000E+00  1.630E+03  0.000E+00  0.000E+00
   2   51   39    10     8    5.5357E+02  2.8215E+01   5.2535E+02  0.000E+00  0.000E+00  0.000E+00  2.12801E+03  1.182E-02  3.000E+00  1.630E+03  0.000E+00  0.000E+00
   2   50   39    10     9    5.2535E+02 -8.4376E+01   6.0973E+02  0.000E+00  0.000E+00  0.000E+00  2.12501E+03  1.030E-02  3.000E+00  1.630E+03  0.000E+00  0.000E+00
   2   49   38    10    10    6.0973E+02 -1.5484E+02   7.6457E+02  0.000E+00  0.000E+00  0.000E+00  2.12101E+03  1.212E-02  3.000E+00  1.909E+03  0.000E+00  0.000E+00
   2   48   37    10    11    7.6457E+02  2.7727E+01   7.3684E+02  0.000E+00  0.000E+00  0.000E+00  2.11801E+03  1.087E-02  3.000E+00  1.909E+03  0.000E+00  0.000E+00
   2   47   36    10    12    7.3684E+02 -3.3947E+02   1.0763E+03  0.000E+00  0.000E+00  0.000E+00  2.10901E+03  1.161E-02  3.000E+00  1.630E+03  0.000E+00  0.000E+00
   2   46   36    10    13    1.0763E+03 -1.3346E+02   1.2098E+03  0.000E+00  0.000E+00  0.000E+00  2.10601E+03  1.482E-02  3.000E+00  1.350E+03  0.000E+00  0.000E+00
   2   45   36    10    14    1.2098E+03 -1.6824E+02   1.3780E+03  0.000E+00  0.000E+00  0.000E+00  2.10202E+03  1.597E-02  3.000E+00  1.350E+03  0.000E+00  0.000E+00
   2   44   36    10    15    1.3780E+03 -9.8746E+01   1.4768E+03  0.000E+00  0.000E+00  0.000E+00  2.09902E+03  1.774E-02  3.000E+00  1.350E+03  0.000E+00  0.000E+00
   2   43   36    10    16    1.4768E+03 -1.8951E+01   1.4957E+03  0.000E+00  0.000E+00  0.000E+00  2.09602E+03  1.703E-02  3.000E+00  1.630E+03  0.000E+00  0.000E+00
   2   42   37    10    17    1.4957E+03  1.8428E+02   1.3114E+03  0.000E+00  0.000E+00  0.000E+00  2.09001E+03  1.384E-02  3.000E+00  1.630E+03  0.000E+00  0.000E+00
   2   41   37    10    18    1.3114E+03 -2.6270E+02   1.5741E+03  0.000E+00  0.000E+00  0.000E+00  2.08001E+03  1.330E-02  3.000E+00  1.350E+03  0.000E+00  0.000E+00
   2   40   37    10    19    1.5741E+03 -3.2416E+02   1.8983E+03  0.000E+00  0.000E+00  0.000E+00  2.07402E+03  1.869E-02  3.000E+00  1.630E+03  0.000E+00  0.000E+00
   2   39   38    10    20    1.8983E+03 -2.7051E+01   1.9253E+03  0.000E+00  0.000E+00  0.000E+00  2.07102E+03  2.135E-02  3.000E+00  1.630E+03  0.000E+00  0.000E+00
   2   38   38    10    21    1.9253E+03  4.0963E+01   1.8844E+03  0.000E+00  0.000E+00  0.000E+00  2.06702E+03  1.915E-02  3.000E+00  1.630E+03  0.000E+00  0.000E+00
   2   37   37    10    22    1.8844E+03 -2.8379E+02   2.1682E+03  0.000E+00  0.000E+00  0.000E+00  2.06102E+03  1.987E-02  3.000E+00  1.630E+03  0.000E+00  0.000E+00
   2   36   37    10    23    2.1682E+03 -1.9346E+02   2.3616E+03  0.000E+00  0.000E+00  0.000E+00  2.05702E+03  2.234E-02  3.000E+00  1.350E+03  0.000E+00  0.000E+00
   2   35   37    10    24    2.3616E+03 -5.7876E+01   2.4195E+03  0.000E+00  0.000E+00  0.000E+00  2.05402E+03  1.637E-02  3.000E+00  6.750E+02  0.000E+00  0.000E+00
   2   36   55    11     1    1.2174E+03 -6.2658E+01   1.2800E+03  0.000E+00  0.000E+00  0.000E+00  1.97601E+03  1.270E-02  3.000E+00  6.750E+02  0.000E+00  0.000E+00
   2   36   56    11     2    1.2800E+03 -1.0607E+02   1.3861E+03  0.000E+00  0.000E+00  0.000E+00  1.97502E+03  2.218E-02  3.000E+00  1.630E+03  0.000E+00  0.000E+00
   2   37   57    11     3    1.3861E+03 -1.1051E+02   1.4966E+03  0.000E+00  0.000E+00  0.000E+00  1.97302E+03  2.324E-02  3.000E+00  1.630E+03  0.000E+00  0.000E+00
   2   37   58    11     4    1.4966E+03 -6.6013E+01   1.5626E+03  0.000E+00  0.000E+00  0.000E+00  1.97203E+03  3.165E-02  3.000E+00  1.350E+03  0.000E+00  0.000E+00
   2   37   59    11     5    1.5626E+03  6.2382E+01   1.5002E+03  0.000E+00  0.000E+00  0.000E+00  1.97203E+03  2.573E-02  3.000E+00  1.350E+03  0.000E+00  0.000E+00
   2   37   60    11     6    1.5002E+03 -3.5662E+01   1.5359E+03  0.000E+00  0.000E+00  0.000E+00  1.97002E+03  2.057E-02  3.000E+00  1.630E+03  0.000E+00  0.000E+00
   2   38   61    11     7    1.5359E+03 -1.4525E+02   1.6811E+03  0.000E+00  0.000E+00  0.000E+00  1.96702E+03  1.925E-02  3.000E+00  1.630E+03  0.000E+00  0.000E+00
   2   38   62    11     8    1.6811E+03 -1.0167E+02   1.7828E+03  0.000E+00  0.000E+00  0.000E+00  1.96302E+03  1.827E-02  3.000E+00  6.750E+02  0.000E+00  0.000E+00
   2   51   11    12     1    0.0000E+00 -3.6014E+02   3.6014E+02  0.000E+00  0.000E+00  0.000E+00  2.38700E+03  3.849E-03  3.000E+00  1.909E+03  0.000E+00  0.000E+00
   2   50   12    12     2    3.6014E+02 -5.3020E+01   4.1316E+02  0.000E+00  0.000E+00  0.000E+00  2.37501E+03  5.805E-03  3.000E+00  1.630E+03  0.000E+00  0.000E+00
   2   49   12    12     3    4.1316E+02 -3.6879E+02   7.8195E+02  0.000E+00  0.000E+00  0.000E+00  2.36501E+03  7.877E-03  3.000E+00  1.630E+03  0.000E+00  0.000E+00
   2   48   13    12     4    7.8195E+02 -1.5495E+02   9.3690E+02  0.000E+00  0.000E+00  0.000E+00  2.35601E+03  1.052E-02  3.000E+00  1.630E+03  0.000E+00  0.000E+00
   2   48   14    12     5    9.3690E+02 -1.6069E+02   1.0976E+03  0.000E+00  0.000E+00  0.000E+00  2.35001E+03  1.141E-02  3.000E+00  1.630E+03  0.000E+00  0.000E+00
   2   47   15    12     6    1.0976E+03 -1.4601E+02   1.2436E+03  0.000E+00  0.000E+00  0.000E+00  2.34001E+03  1.266E-02  3.000E+00  1.630E+03  0.000E+00  0.000E+00
   2   47   16    12     7    1.2436E+03 -1.3481E+02   1.3784E+03  0.000E+00  0.000E+00  0.000E+00  2.33501E+03  1.487E-02  3.000E+00  1.630E+03  0.000E+00  0.000E+00
   2   46   17    12     8    1.3784E+03  8.0635E+01   1.2978E+03  0.000E+00  0.000E+00  0.000E+00  2.32901E+03  1.400E-02  3.000E+00  1.630E+03  0.000E+00  0.000E+00
   2   46   18    12     9    1.2978E+03  1.6170E+02   1.1361E+03  0.000E+00  0.000E+00  0.000E+00  2.32101E+03  1.077E-02  3.000E+00  1.350E+03  0.000E+00  0.000E+00
   2   46   19    12    10    1.1361E+03 -4.4687E+02   1.5829E+03  0.000E+00  0.000E+00  0.000E+00  2.30601E+03  1.309E-02  3.000E+00  1.350E+03  0.000E+00  0.000E+00
   2   46   20    12    11    1.5829E+03  7.5959E+02   8.2336E+02  0.000E+00  0.000E+00  0.000E+00  2.30601E+03  1.025E-02  3.000E+00  1.630E+03  0.000E+00  0.000E+00
   2   45   21    12    12    8.2336E+02 -3.1302E+02   1.1364E+03  0.000E+00  0.000E+00  0.000E+00  2.27401E+03  8.036E-03  3.000E+00  1.909E+03  0.000E+00  0.000E+00
   2   44   22    12    13    1.1364E+03 -1.6976E+02   1.3061E+03  0.000E+00  0.000E+00  0.000E+00  2.25001E+03  9.927E-03  3.000E+00  1.909E+03  0.000E+00  0.000E+00
   2   43   23    12    14    1.3061E+03  1.5689E+02   1.1492E+03  0.000E+00  0.000E+00  0.000E+00  2.23101E+03  1.003E-02  3.000E+00  1.909E+03  0.000E+00  0.000E+00
   2   42   24    12    15    1.1492E+03 -7.2294E+01   1.2215E+03  0.000E+00  0.000E+00  0.000E+00  2.20801E+03  1.026E-02  3.000E+00  1.630E+03  0.000E+00  0.000E+00
   2   42   25    12    16    1.2215E+03 -6.7434E+00   1.2283E+03  0.000E+00  0.000E+00  0.000E+00  2.20001E+03  1.128E-02  3.000E+00  1.350E+03  0.000E+00  0.000E+00
   2   42   26    12    17    1.2283E+03  1.3554E+02   1.0927E+03  0.000E+00  0.000E+00  0.000E+00  2.18801E+03  9.667E-03  3.000E+00  1.350E+03  0.000E+00  0.000E+00
   2   42   27    12    18    1.0927E+03 -2.5845E+02   1.3512E+03  0.000E+00  0.000E+00  0.000E+00  2.17001E+03  1.007E-02  3.000E+00  1.350E+03  0.000E+00  0.000E+00
   2   42   28    12    19    1.3512E+03 -8.8827E+01   1.4400E+03  0.000E+00  0.000E+00  0.000E+00  2.15901E+03  1.166E-02  3.000E+00  1.630E+03  0.000E+00  0.000E+00
   2   41   29    12    20    1.4400E+03  1.6233E+02   1.2777E+03  0.000E+00  0.000E+00  0.000E+00  2.14201E+03  1.157E-02  3.000E+00  1.909E+03  0.000E+00  0.000E+00
   2   40   30    12    21    1.2777E+03  9.0497E+01   1.1872E+03  0.000E+00  0.000E+00  0.000E+00  2.12701E+03  1.148E-02  3.000E+00  1.909E+03  0.000E+00  0.000E+00
   2   39   31    12    22    1.1872E+03  1.1455E+02   1.0726E+03  0.000E+00  0.000E+00  0.000E+00  2.11501E+03  1.129E-02  3.000E+00  1.909E+03  1.148E+02 -2.430E-01
   2   38   32    12    23    1.0726E+03  1.1455E+02   9.5809E+02  0.000E+00  0.000E+00  0.000E+00  2.10301E+03  1.033E-02  3.000E+00  1.909E+03  1.215E+02 -6.917E+00
   2   37   33    12    24    9.5809E+02  2.0292E+02   7.5517E+02  0.000E+00  0.000E+00  0.000E+00  2.08901E+03  9.332E-03  3.000E+00  1.909E+03  0.000E+00  0.000E+00
   2   36   34    12    25    7.5517E+02 -5.2395E+01   8.0756E+02  0.000E+00  0.000E+00  0.000E+00  2.07701E+03  7.542E-03  3.000E+00  9.546E+02  0.000E+00  0.000E+00
   2   38   62    13     1    1.9417E+03 -1.0381E+02   2.0455E+03  0.000E+00  0.000E+00  0.000E+00  1.96302E+03  1.510E-02  3.000E+00  6.750E+02  0.000E+00  0.000E+00
   2   38   63    13     2    2.0455E+03 -7.7807E+01   2.1233E+03  0.000E+00  0.000E+00  0.000E+00  1.96401E+03  1.010E+00  3.000E+00  1.350E+03  0.000E+00  0.000E+00
   2   38   64    13     3    2.1233E+03 -3.7352E+01   2.1607E+03  0.000E+00  0.000E+00  0.000E+00  1.96403E+03  1.027E+00  3.000E+00  1.350E+03  0.000E+00  0.000E+00
   2   38   65    13     4    2.1607E+03  2.6166E+01   2.1345E+03  0.000E+00  0.000E+00  0.000E+00  1.96303E+03  2.790E-02  3.000E+00  6.750E+02  0.000E+00  0.000E+00
   2   46   61    14     1    0.0000E+00  0.0000E+00   0.0000E+00  0.000E+00  0.000E+00  0.000E+00  2.01700E+03  0.000E+00  3.000E+00  1.350E+03  0.000E+00  0.000E+00
   2   45   61    14     2    0.0000E+00  0.0000E+00   0.0000E+00  0.000E+00  0.000E+00  0.000E+00  2.01000E+03  0.000E+00  3.000E+00  1.350E+03  0.000E+00  0.000E+00
   2   44   61    14     3    0.0000E+00  0.0000E+00   0.0000E+00  0.000E+00  0.000E+00  0.000E+00  2.00600E+03  0.000E+00  3.000E+00  1.350E+03  0.000E+00  0.000E+00
   2   43   61    14     4    0.0000E+00  0.0000E+00   0.0000E+00  0.000E+00  0.000E+00  0.000E+00  1.99900E+03  0.000E+00  3.000E+00  1.350E+03  0.000E+00  0.000E+00
   2   42   61    14     5    0.0000E+00  0.0000E+00   0.0000E+00  0.000E+00  0.000E+00  0.000E+00  1.99300E+03  0.000E+00  3.000E+00  1.350E+03  0.000E+00  0.000E+00
   2   41   61    14     6    0.0000E+00  0.0000E+00   0.0000E+00  0.000E+00  0.000E+00  0.000E+00  1.98500E+03  0.000E+00  3.000E+00  1.350E+03  0.000E+00  0.000E+00
   2   40   61    14     7    0.0000E+00  0.0000E+00   0.0000E+00  0.000E+00  0.000E+00  0.000E+00  1.97800E+03  0.000E+00  3.000E+00  1.350E+03  0.000E+00  0.000E+00
   2   39   61    14     8    0.0000E+00  0.0000E+00   0.0000E+00  0.000E+00  0.000E+00  0.000E+00  1.97300E+03  0.000E+00  3.000E+00  1.630E+03  0.000E+00  0.000E+00
   2   38   62    14     9    0.0000E+00 -1.5891E+02   1.5891E+02  0.000E+00  0.000E+00  0.000E+00  1.96300E+03  2.424E-03  3.000E+00  9.546E+02  0.000E+00  0.000E+00
   2   39   70    15     1    2.4230E+03 -1.4887E+00   2.4245E+03  0.000E+00  0.000E+00  0.000E+00  1.94602E+03  1.650E-02  3.000E+00  6.750E+02  0.000E+00  0.000E+00
   2   40   75    16     1    1.5000E+04 -2.5095E+01   1.5025E+04  0.000E+00  0.000E+00  0.000E+00  1.93406E+03  6.245E-02  3.000E+00  6.750E+02  0.000E+00  0.000E+00
   2   40   76    16     2    1.5025E+04  0.0000E+00   1.5025E+04  0.000E+00  0.000E+00  0.000E+00  1.93309E+03  8.966E-02  3.000E+00  0.000E+00  0.000E+00  0.000E+00
   2   55   73    17     1    0.0000E+00  0.0000E+00   0.0000E+00  0.000E+00  0.000E+00  0.000E+00  2.04100E+03  0.000E+00  3.000E+00  1.350E+03  0.000E+00  0.000E+00
   2   54   73    17     2    0.0000E+00  0.0000E+00   0.0000E+00  0.000E+00  0.000E+00  0.000E+00  2.02900E+03  0.000E+00  3.000E+00  1.350E+03  0.000E+00  0.000E+00
   2   53   73    17     3    0.0000E+00  0.0000E+00   0.0000E+00  0.000E+00  0.000E+00  0.000E+00  2.01700E+03  0.000E+00  3.000E+00  1.350E+03  0.000E+00  0.000E+00
   2   52   73    17     4    0.0000E+00  0.0000E+00   0.0000E+00  0.000E+00  0.000E+00  0.000E+00  2.01000E+03  0.000E+00  3.000E+00  1.630E+03  0.000E+00  0.000E+00
   2   51   72    17     5    0.0000E+00  0.0000E+00   0.0000E+00  0.000E+00  0.000E+00  0.000E+00  1.99800E+03  0.000E+00  3.000E+00  1.630E+03  0.000E+00  0.000E+00
   2   50   72    17     6    0.0000E+00 -4.9190E+01   4.9190E+01  0.000E+00  0.000E+00  0.000E+00  1.97500E+03  1.260E-03  3.000E+00  1.350E+03  0.000E+00  0.000E+00
   2   49   72    17     7    4.9190E+01  0.0000E+00   4.9190E+01  0.000E+00  0.000E+00  0.000E+00  1.95600E+03  1.817E-03  3.000E+00  0.000E+00  0.000E+00  0.000E+00
   2   48   72    17     8    4.9190E+01  0.0000E+00   4.9190E+01  0.000E+00  0.000E+00  0.000E+00  1.95200E+03  1.814E-03  3.000E+00  0.000E+00  0.000E+00  0.000E+00
   2   47   72    17     9    4.9190E+01  0.0000E+00   4.9190E+01  0.000E+00  0.000E+00  0.000E+00  1.95000E+03  1.864E-03  3.000E+00  0.000E+00  0.000E+00  0.000E+00
   2   46   72    17    10    4.9190E+01  0.0000E+00   4.9190E+01  0.000E+00  0.000E+00  0.000E+00  1.94800E+03  1.901E-03  3.000E+00  0.000E+00  0.000E+00  0.000E+00
   2   45   72    17    11    4.9190E+01  0.0000E+00   4.9190E+01  0.000E+00  0.000E+00  0.000E+00  1.94400E+03  1.935E-03  3.000E+00  0.000E+00  0.000E+00  0.000E+00
   2   44   73    17    12    4.9190E+01  0.0000E+00   4.9190E+01  0.000E+00  0.000E+00  0.000E+00  1.94200E+03  1.981E-03  3.000E+00  0.000E+00  0.000E+00  0.000E+00
   2   43   73    17    13    4.9190E+01  0.0000E+00   4.9190E+01  0.000E+00  0.000E+00  0.000E+00  1.94200E+03  2.149E-03  3.000E+00  0.000E+00  0.000E+00  0.000E+00
   2   42   73    17    14    4.9190E+01  0.0000E+00   4.9190E+01  0.000E+00  0.000E+00  0.000E+00  1.94100E+03  2.196E-03  3.000E+00  0.000E+00  0.000E+00  0.000E+00
   2   34   45    18     1    9.8226E-05 -4.3238E+01   4.3238E+01  0.000E+00  0.000E+00  0.000E+00  2.01790E+03  1.394E-03  3.000E+00  1.630E+03  0.000E+00  0.000E+00
   2   34   46    18     2    4.3238E+01 -7.0893E+01   1.1413E+02  0.000E+00  0.000E+00  0.000E+00  2.01100E+03  2.760E-03  3.000E+00  1.350E+03  0.000E+00  0.000E+00
   2   34   47    18     3    1.1413E+02  4.8840E-01   1.1364E+02  0.000E+00  0.000E+00  0.000E+00  2.00700E+03  2.712E-03  3.000E+00  6.750E+02  0.000E+00  0.000E+00
   2   41   74    19     1    1.4229E+04 -2.1267E+02   1.4442E+04  0.000E+00  0.000E+00  0.000E+00  1.93807E+03  6.740E-02  3.000E+00  1.909E+03  0.000E+00  0.000E+00
   2   40   75    19     2    1.4442E+04 -3.0437E+01   1.4472E+04  0.000E+00  0.000E+00  0.000E+00  1.93407E+03  6.774E-02  3.000E+00  9.546E+02  0.000E+00  0.000E+00
   2   39   66    20     1    0.0000E+00  0.0000E+00   0.0000E+00  0.000E+00  0.000E+00  0.000E+00  1.96250E+03  0.000E+00  1.500E+00  8.148E+02  0.000E+00  0.000E+00
   2   39   67    20     2    0.0000E+00  0.0000E+00   0.0000E+00  0.000E+00  0.000E+00  0.000E+00  1.96225E+03  0.000E+00  1.500E+00  6.750E+02  0.000E+00  0.000E+00
   2   40   68    20     3    0.0000E+00  0.0000E+00   0.0000E+00  0.000E+00  0.000E+00  0.000E+00  1.96200E+03  0.000E+00  1.500E+00  9.546E+02  0.000E+00  0.000E+00
   2   41   69    20     4    0.0000E+00  0.0000E+00   0.0000E+00  0.000E+00  0.000E+00  0.000E+00  1.96175E+03  0.000E+00  1.500E+00  8.148E+02  0.000E+00  0.000E+00
   2   42   69    20     5    0.0000E+00  0.0000E+00   0.0000E+00  0.000E+00  0.000E+00  0.000E+00  1.96150E+03  0.000E+00  1.500E+00  8.148E+02  0.000E+00  0.000E+00
   2   43   70    20     6    0.0000E+00  0.0000E+00   0.0000E+00  0.000E+00  0.000E+00  0.000E+00  1.96125E+03  0.000E+00  1.500E+00  8.148E+02  0.000E+00  0.000E+00
   2   38   66    21     1    2.1345E+03 -6.9567E+01   2.2041E+03  0.000E+00  0.000E+00  0.000E+00  1.96002E+03  2.408E-02  3.000E+00  1.350E+03  0.000E+00  0.000E+00
   2   38   67    21     2    2.2041E+03  1.7388E+01   2.1867E+03  0.000E+00  0.000E+00  0.000E+00  1.95802E+03  2.320E-02  3.000E+00  1.630E+03  0.000E+00  0.000E+00
   2   39   68    21     3    2.1867E+03 -1.0526E+01   2.1972E+03  0.000E+00  0.000E+00  0.000E+00  1.95302E+03  2.083E-02  3.000E+00  1.630E+03  0.000E+00  0.000E+00
   2   39   69    21     4    2.1972E+03 -2.0924E+02   2.4065E+03  0.000E+00  0.000E+00  0.000E+00  1.94802E+03  2.256E-02  3.000E+00  1.350E+03  0.000E+00  0.000E+00
   2   39   70    21     5    2.4065E+03  6.7444E-01   2.4058E+03  0.000E+00  0.000E+00  0.000E+00  1.94602E+03  1.971E-02  3.000E+00  6.750E+02  0.000E+00  0.000E+00
   2   38   71    22     1    2.4245E+03 -5.2154E+01   2.4766E+03  0.000E+00  0.000E+00  0.000E+00  1.94554E+03  4.443E-02  3.000E+00  3.259E+02  0.000E+00  0.000E+00
   2   38   72    22     2    2.4766E+03 -3.5551E+01   2.5122E+03  0.000E+00  0.000E+00  0.000E+00  1.94504E+03  4.491E-02  3.000E+00  3.259E+02  0.000E+00  0.000E+00
   2   39   73    22     3    2.5122E+03  9.7776E+01   2.4144E+03  0.000E+00  0.000E+00  0.000E+00  1.94454E+03  4.457E-02  3.000E+00  3.259E+02  9.977E+01 -1.992E+00
   2   39   74    22     4    2.4144E+03  8.1000E+01   2.3334E+03  0.000E+00  0.000E+00  0.000E+00  1.94404E+03  4.120E-02  3.000E+00  2.700E+02  8.531E+01 -4.313E+00
   2   39   75    22     5    2.3334E+03  8.1000E+01   2.2524E+03  0.000E+00  0.000E+00  0.000E+00  1.94354E+03  4.035E-02  3.000E+00  2.700E+02  8.546E+01 -4.458E+00
   2   39   76    22     6    2.2524E+03  0.0000E+00   2.2524E+03  0.000E+00  0.000E+00  0.000E+00  1.94304E+03  3.992E-02  3.000E+00  0.000E+00  0.000E+00  0.000E+00
   2   39   71    23     1    0.0000E+00 -1.8288E+02   1.8288E+02  0.000E+00  0.000E+00  0.000E+00  1.94200E+03  3.812E-03  3.000E+00  1.630E+03  0.000E+00  0.000E+00
   2   40   72    23     2    1.8288E+02 -7.0719E+01   2.5359E+02  0.000E+00  0.000E+00  0.000E+00  1.94101E+03  6.869E-03  3.000E+00  1.630E+03  0.000E+00  0.000E+00
   2   40   73    23     3    2.5359E+02 -1.4878E+02   4.0238E+02  0.000E+00  0.000E+00  0.000E+00  1.93801E+03  7.753E-03  3.000E+00  1.350E+03  0.000E+00  0.000E+00
   2   40   74    23     4    4.0238E+02 -6.4390E+01   4.6677E+02  0.000E+00  0.000E+00  0.000E+00  1.93601E+03  9.814E-03  3.000E+00  1.350E+03  0.000E+00  0.000E+00
   2   40   75    23     5    4.6677E+02 -6.0887E+01   5.2765E+02  0.000E+00  0.000E+00  0.000E+00  1.93401E+03  9.421E-03  3.000E+00  6.750E+02  0.000E+00  0.000E+00



1
  VOLUMETRIC BUDGET FOR UNSATURATED ZONE BENEATH STREAMS AT END OF TIME STEP     2 STRESS PERIOD   2
  ------------------------------------------------------------------------------------------------

    CUMULATIVE VOLUMES             L**3    RATES FOR THIS TIME STEP         L**3/T
    ------------------                     ------------------------


          STREAM LOSS =         1821.2166            STREAM LOSS =          829.4785
    CHANGE IN STORAGE =          663.4313      CHANGE IN STORAGE =          301.5748
       RECHARGE TO GW =         1157.7854         RECHARGE TO GW =          527.9038

             TOTAL IN =         1821.2166               TOTAL IN =          829.4785

            TOTAL OUT =         1821.2167              TOTAL OUT =          829.4786

             IN - OUT =       -1.2207E-04               IN - OUT =       -6.1035E-05

  PERCENT DISCREPANCY =           -0.00      PERCENT DISCREPANCY =            -0.00



 ***WARNING***NUZTOP IS 3 AND ALL LAYERS  IN ROW           39  AND COLUMN 
          76  ARE INACTIVE.
 UNSATURATED FLOW WILL NOT BE ADDED TO ANY LAYER-- SOME WATER MAY FLOW PAST
  LOWEST LAYER
 ***WARNING***NUZTOP IS 3 AND ALL LAYERS  IN ROW           40  AND COLUMN 
          76  ARE INACTIVE.
 UNSATURATED FLOW WILL NOT BE ADDED TO ANY LAYER-- SOME WATER MAY FLOW PAST
  LOWEST LAYER


UNSATURATED ZONE PACKAGE VOLUMETRIC BUDGET FOR  TIME STEP     2 STRESS PERIOD    2
  ------------------------------------------------------------------------------



     CUMULATIVE VOLUMES      L**3       RATES FOR THIS TIME STEP      L**3/T
     ------------------                 ------------------------

           IN:                                      IN:
           ---                                      ---
        INFILTRATION =       26039.6903          INFILTRATION =       0.0000E+00

          OUT:                                     OUT:
          ----                                     ----
              UZF ET =       56360.8206                UZF ET =       27160.5314
        UZF RECHARGE =       88745.2605          UZF RECHARGE =       30623.2423

            IN - OUT =     -119066.3908              IN - OUT =      -57783.7737

          STORAGE:                                 STORAGE:
          --------                                 --------
      STORAGE CHANGE =     -118597.9263        STORAGE CHANGE =      -57630.5018

 PERCENT DISCREPANCY IS DIFFERENCE BETWEEN IN-OUT MINUS CHANGE IN STORAGE
 DIVIDED BY THE AVERAGE OF IN AND OUT TIMES 100

 PERCENT DISCREPANCY =          -0.08     PERCENT DISCREPANCY =          -0.27






1
  VOLUMETRIC BUDGET FOR ENTIRE MODEL AT END OF TIME STEP    2, STRESS PERIOD   2
  ------------------------------------------------------------------------------

     CUMULATIVE VOLUMES      L**3       RATES FOR THIS TIME STEP      L**3/T
     ------------------                 ------------------------

           IN:                                      IN:
           ---                                      ---
             STORAGE     =         151.0815               STORAGE     =          86.1330
       CONSTANT HEAD     =          14.0503         CONSTANT HEAD     =           3.6537
      STREAM LEAKAGE     =       12887.5596        STREAM LEAKAGE     =        4210.7812
       LAKE  SEEPAGE     =        1019.4925         LAKE  SEEPAGE     =         326.5135
        UZF RECHARGE     =       88758.6328          UZF RECHARGE     =       30623.2402
               GW ET     =           0.0000                 GW ET     =           0.0000
     SURFACE LEAKAGE     =           0.0000       SURFACE LEAKAGE     =           0.0000

                TOTAL IN =      102830.8125                  TOTAL IN =       35250.3203

          OUT:                                     OUT:
          ----                                     ----
             STORAGE     =       38876.8750               STORAGE     =       18360.8398
       CONSTANT HEAD     =         186.4951         CONSTANT HEAD     =          62.8148
      STREAM LEAKAGE     =       30087.7285        STREAM LEAKAGE     =       11557.2051
       LAKE  SEEPAGE     =        7918.0742         LAKE  SEEPAGE     =        2634.8916
        UZF RECHARGE     =           0.0000          UZF RECHARGE     =           0.0000
               GW ET     =       25243.4648                 GW ET     =        2439.3916
     SURFACE LEAKAGE     =         647.5071       SURFACE LEAKAGE     =         267.2031

               TOTAL OUT =      102960.1406                 TOTAL OUT =       35322.3438

                IN - OUT =        -129.3281                  IN - OUT =         -72.0234

     PERCENT DISCREPANCY =          -0.13         PERCENT DISCREPANCY =          -0.20






         TIME SUMMARY AT END OF TIME STEP    2 IN STRESS PERIOD    2
                    SECONDS     MINUTES      HOURS       DAYS        YEARS
                    -----------------------------------------------------------
   TIME STEP LENGTH  86400.      1440.0      24.000      1.0000     2.73785E-03
 STRESS PERIOD TIME 1.72800E+05  2880.0      48.000      2.0000     5.47570E-03
         TOTAL TIME 2.59200E+05  4320.0      72.000      3.0000     8.21355E-03
1
                                                   Max.-Head-Change                         Max.-Flux-Residual
  Residual-Control   Outer-Iter.   Inner-Iter.     Column Row Layer    Maximum-Head-Change  Column Row Layer    Maximum-Flux-Residual          L2-NORM 
          0                 1           4             4   59     2       0.4092621879E+01      63   38    2         0.6028249947E+03      0.1040648095E+04
          0                 2           3            70   65     2       0.2031698846E+01      64   38    2         0.2841347794E+03      0.3904987238E+03
          0                 3           3            73   39     2       0.1381008841E+01      72   61    2         0.1031372852E+03      0.1493007486E+03
          0                 4           3            73   39     2      -0.1734807836E+00      73   39    2        -0.7068837591E+02      0.7994260244E+02
          0                 5           2            73   39     2      -0.1742507348E-01      73   39    2        -0.7116117715E+01      0.1182186680E+02
          0                 6           2            72   61     2       0.1819412250E-02      72   61    2         0.1845249749E+01      0.2529170887E+01
          0                 7           1            72   61     2       0.4734078820E-03      72   61    2         0.4798318511E+00      0.7066895170E+00
          0                 8           1            74   39     2       0.1494185142E-03      72   61    2         0.1247194826E+00      0.2509276339E+00
          0                 9           1            67   25     2      -0.5266767059E-04      67   25    2        -0.7356043402E-01      0.1112213583E+00

    ------------------------------------------------
       NWT REQUIRED            9 OUTER ITERATIONS 
       AND A TOTAL OF         20 INNER ITERATIONS.
    ------------------------------------------------
                                                   Max.-Head-Change                         Max.-Flux-Residual
  Residual-Control   Outer-Iter.   Inner-Iter.     Column Row Layer    Maximum-Head-Change  Column Row Layer    Maximum-Flux-Residual          L2-NORM 
          0                 1           2            63   38     2       0.3016766209E-01      63   38    2         0.3899617548E+02      0.4931478350E+02
          0                 2           2            64   38     2       0.1098331735E-01      64   38    2         0.1422572241E+02      0.1646146242E+02
          0                 3           2            49   23     2       0.1801149383E-02      64   38    2         0.1968996998E+01      0.2290027901E+01
          0                 4           1            49   23     2       0.1813966101E-03      64   38    2         0.1509153972E+00      0.2897647895E+00
          0                 5           1            64   38     2       0.2935451220E-04      66   24    2         0.3927326143E-01      0.7900462921E-01

    ------------------------------------------------
       NWT REQUIRED            5 OUTER ITERATIONS 
       AND A TOTAL OF          8 INNER ITERATIONS.
    ------------------------------------------------
                                                   Max.-Head-Change                         Max.-Flux-Residual
  Residual-Control   Outer-Iter.   Inner-Iter.     Column Row Layer    Maximum-Head-Change  Column Row Layer    Maximum-Flux-Residual          L2-NORM 
          0                 1           1            49   23     2      -0.1051719715E-02      63   38    2         0.5833032980E-01      0.1549748357E+00
          0                 2           1            49   23     2      -0.9460750327E-03      63   38    2        -0.6937819247E-01      0.1695661540E+00
          0                 3           2            49   23     2       0.1796497890E-02      63   38    2        -0.6765938902E-01      0.2874777340E+00
          0                 4           1            49   23     2       0.1806956202E-03      63   38    2         0.1031686590E+00      0.1492168248E+00
          0                 5           1            63   38     2       0.3069359785E-04      63   38    2         0.5876677191E-01      0.9719073187E-01

    ------------------------------------------------
       NWT REQUIRED            5 OUTER ITERATIONS 
       AND A TOTAL OF          6 INNER ITERATIONS.
    ------------------------------------------------
                                                   Max.-Head-Change                         Max.-Flux-Residual
  Residual-Control   Outer-Iter.   Inner-Iter.     Column Row Layer    Maximum-Head-Change  Column Row Layer    Maximum-Flux-Residual          L2-NORM 
          0                 1           1            49   23     2      -0.1052407437E-02      67   25    2         0.2588876014E-01      0.1379852714E+00
          0                 2           1            49   23     2      -0.9451122463E-03      63   38    2        -0.8084545200E-01      0.1796863908E+00
          0                 3           2            49   23     2       0.1796179543E-02      63   38    2        -0.6977855448E-01      0.2888771388E+00
          0                 4           1            49   23     2       0.1806683804E-03      63   38    2         0.1027275983E+00      0.1481344565E+00
          0                 5           1            63   38     2       0.3060716692E-04      63   38    2         0.5861188495E-01      0.9687725749E-01

    ------------------------------------------------
       NWT REQUIRED            5 OUTER ITERATIONS 
       AND A TOTAL OF          6 INNER ITERATIONS.
    ------------------------------------------------

 OUTPUT CONTROL FOR STRESS PERIOD    2   TIME STEP    3
    PRINT BUDGET



 STREAM LISTING     PERIOD      2   STEP        3

 LAYER ROW COL. STREAM  RCH.   FLOW INTO    STREAM     FLOW OUT OF   OVRLND.    DIRECT     STREAM      STREAM      STREAM     STREAM  STREAMBED   FLOW TO   CHNG. UNSAT. 
                SEG.NO.  NO.   STRM. RCH.    LOSS       STRM. RCH.   RUNOFF     PRECIP       ET         HEAD        DEPTH      WIDTH  CONDCTNC.   WAT. TAB.

   2   18   62     1     1    0.0000E+00  0.0000E+00   0.0000E+00  0.000E+00  0.000E+00  0.000E+00  2.07300E+03  0.000E+00  3.000E+00  1.909E+03  0.000E+00  0.000E+00
   2   19   63     1     2    0.0000E+00 -3.7739E+01   3.7739E+01  0.000E+00  0.000E+00  0.000E+00  2.06300E+03  1.039E-03  3.000E+00  1.909E+03  0.000E+00  0.000E+00
   2   20   64     1     3    3.7739E+01 -7.1443E+01   1.0918E+02  0.000E+00  0.000E+00  0.000E+00  2.05400E+03  2.571E-03  3.000E+00  1.630E+03  0.000E+00  0.000E+00
   2   21   64     1     4    1.0918E+02 -7.2382E+01   1.8156E+02  0.000E+00  0.000E+00  0.000E+00  2.05100E+03  4.767E-03  3.000E+00  1.630E+03  0.000E+00  0.000E+00
   2   22   65     1     5    1.8156E+02 -7.1579E+00   1.8872E+02  0.000E+00  0.000E+00  0.000E+00  2.04800E+03  4.694E-03  3.000E+00  9.546E+02  0.000E+00  0.000E+00
   2   20   66     2     1    0.0000E+00  0.0000E+00   0.0000E+00  0.000E+00  0.000E+00  0.000E+00  2.05300E+03  0.000E+00  3.000E+00  1.909E+03  0.000E+00  0.000E+00
   2   21   65     2     2    0.0000E+00  0.0000E+00   0.0000E+00  0.000E+00  0.000E+00  0.000E+00  2.05100E+03  0.000E+00  3.000E+00  1.630E+03  0.000E+00  0.000E+00
   2   22   65     2     3    0.0000E+00 -7.9450E+00   7.9450E+00  0.000E+00  0.000E+00  0.000E+00  2.04800E+03  4.220E-04  3.000E+00  6.750E+02  0.000E+00  0.000E+00
   2   22   65     3     1    1.9667E+02 -5.2453E+00   2.0191E+02  0.000E+00  0.000E+00  0.000E+00  2.04800E+03  4.422E-03  3.000E+00  6.750E+02  0.000E+00  0.000E+00
   2   23   65     3     2    2.0191E+02 -6.6228E+01   2.6814E+02  0.000E+00  0.000E+00  0.000E+00  2.04501E+03  7.829E-03  3.000E+00  1.630E+03  0.000E+00  0.000E+00
   2   24   66     3     3    2.6814E+02  2.6906E+00   2.6545E+02  0.000E+00  0.000E+00  0.000E+00  2.04529E+03  2.943E-01  3.000E+00  1.909E+03  0.000E+00  0.000E+00
   2   25   67     3     4    2.6545E+02  2.6545E+02   0.0000E+00  0.000E+00  0.000E+00  0.000E+00  2.04500E+03  1.987E-03  3.000E+00  1.909E+03  0.000E+00  0.000E+00
   2   26   68     3     5    0.0000E+00  0.0000E+00   0.0000E+00  0.000E+00  0.000E+00  0.000E+00  2.04200E+03  0.000E+00  3.000E+00  1.630E+03  0.000E+00  0.000E+00
   2   27   68     3     6    0.0000E+00  0.0000E+00   0.0000E+00  0.000E+00  0.000E+00  0.000E+00  2.04100E+03  0.000E+00  3.000E+00  1.630E+03  0.000E+00  0.000E+00
   2   28   69     3     7    0.0000E+00  0.0000E+00   0.0000E+00  0.000E+00  0.000E+00  0.000E+00  2.03600E+03  0.000E+00  3.000E+00  1.630E+03  0.000E+00  0.000E+00
   2   29   69     3     8    0.0000E+00  0.0000E+00   0.0000E+00  0.000E+00  0.000E+00  0.000E+00  2.02900E+03  0.000E+00  3.000E+00  1.350E+03  0.000E+00  0.000E+00
   2   30   69     3     9    0.0000E+00  0.0000E+00   0.0000E+00  0.000E+00  0.000E+00  0.000E+00  2.02300E+03  0.000E+00  3.000E+00  1.630E+03  0.000E+00  0.000E+00
   2   31   70     3    10    0.0000E+00  0.0000E+00   0.0000E+00  0.000E+00  0.000E+00  0.000E+00  2.01100E+03  0.000E+00  3.000E+00  1.630E+03  0.000E+00  0.000E+00
   2   32   70     3    11    0.0000E+00 -4.9391E+01   4.9391E+01  0.000E+00  0.000E+00  0.000E+00  2.00500E+03  1.427E-03  3.000E+00  1.350E+03  0.000E+00  0.000E+00
   2   33   70     3    12    4.9391E+01  4.9391E+01   0.0000E+00  0.000E+00  0.000E+00  0.000E+00  2.00300E+03  3.971E-04  3.000E+00  1.630E+03  4.948E+01 -8.818E-02
   2   34   69     3    13    0.0000E+00  0.0000E+00   0.0000E+00  0.000E+00  0.000E+00  0.000E+00  1.98600E+03  0.000E+00  3.000E+00  1.630E+03  0.000E+00  0.000E+00
   2   35   69     3    14    0.0000E+00 -1.1657E+02   1.1657E+02  0.000E+00  0.000E+00  0.000E+00  1.97300E+03  1.842E-03  3.000E+00  1.350E+03  0.000E+00  0.000E+00
   2   36   69     3    15    1.1657E+02  4.6046E+01   7.0523E+01  0.000E+00  0.000E+00  0.000E+00  1.96700E+03  2.682E-03  3.000E+00  1.350E+03  0.000E+00  0.000E+00
   2   37   69     3    16    7.0523E+01  7.0523E+01   0.0000E+00  0.000E+00  0.000E+00  0.000E+00  1.95900E+03  5.093E-04  3.000E+00  1.350E+03  0.000E+00  0.000E+00
   2   38   69     3    17    0.0000E+00  0.0000E+00   0.0000E+00  0.000E+00  0.000E+00  0.000E+00  1.95300E+03  0.000E+00  3.000E+00  1.630E+03  0.000E+00  0.000E+00
   2   39   70     3    18    0.0000E+00 -2.3259E+01   2.3259E+01  0.000E+00  0.000E+00  0.000E+00  1.94600E+03  7.437E-04  3.000E+00  9.546E+02  0.000E+00  0.000E+00
   2   25   49     4     1    0.0000E+00 -1.2330E+02   1.2330E+02  0.000E+00  0.000E+00  0.000E+00  2.03500E+03  2.052E-03  3.000E+00  1.909E+03  0.000E+00  0.000E+00
   2   26   50     4     2    1.2330E+02 -8.9269E+01   2.1257E+02  0.000E+00  0.000E+00  0.000E+00  2.02600E+03  4.061E-03  3.000E+00  1.909E+03  0.000E+00  0.000E+00
   2   27   51     4     3    2.1257E+02 -7.8381E+01   2.9095E+02  0.000E+00  0.000E+00  0.000E+00  2.01901E+03  5.383E-03  3.000E+00  1.630E+03  0.000E+00  0.000E+00
   2   28   51     4     4    2.9095E+02 -7.3832E+01   3.6478E+02  0.000E+00  0.000E+00  0.000E+00  2.01401E+03  6.662E-03  3.000E+00  1.630E+03  0.000E+00  0.000E+00
   2   29   52     4     5    3.6478E+02 -6.7854E+01   4.3264E+02  0.000E+00  0.000E+00  0.000E+00  2.00901E+03  7.491E-03  3.000E+00  1.630E+03  0.000E+00  0.000E+00
   2   30   52     4     6    4.3264E+02 -5.2279E+01   4.8492E+02  0.000E+00  0.000E+00  0.000E+00  2.00401E+03  7.702E-03  3.000E+00  1.350E+03  0.000E+00  0.000E+00
   2   31   52     4     7    4.8492E+02 -7.5182E+01   5.6010E+02  0.000E+00  0.000E+00  0.000E+00  1.99901E+03  9.267E-03  3.000E+00  1.350E+03  0.000E+00  0.000E+00
   2   32   52     4     8    5.6010E+02  4.8474E+00   5.5525E+02  0.000E+00  0.000E+00  0.000E+00  1.99701E+03  9.796E-03  3.000E+00  1.630E+03  0.000E+00  0.000E+00
   2   33   53     4     9    5.5525E+02  9.6032E+00   5.4565E+02  0.000E+00  0.000E+00  0.000E+00  1.99101E+03  9.533E-03  3.000E+00  1.909E+03  0.000E+00  0.000E+00
   2   34   54     4    10    5.4565E+02  2.7036E+02   2.7529E+02  0.000E+00  0.000E+00  0.000E+00  1.98701E+03  8.251E-03  3.000E+00  1.909E+03  0.000E+00  0.000E+00
   2   35   55     4    11    2.7529E+02  9.7776E+01   1.7751E+02  0.000E+00  0.000E+00  0.000E+00  1.98201E+03  5.184E-03  3.000E+00  1.630E+03  9.537E+01  2.403E+00
   2   36   55     4    12    1.7751E+02 -7.6770E+01   2.5428E+02  0.000E+00  0.000E+00  0.000E+00  1.97600E+03  4.429E-03  3.000E+00  6.750E+02  0.000E+00  0.000E+00
   2   35   37     5     1    4.1395E+03  0.0000E+00   4.1395E+03  0.000E+00  0.000E+00  0.000E+00  2.05402E+03  2.256E-02  3.000E+00  0.000E+00  0.000E+00  0.000E+00
   2   34   38     5     2    4.1395E+03  0.0000E+00   4.1395E+03  0.000E+00  0.000E+00  0.000E+00  2.04003E+03  2.778E-02  3.000E+00  0.000E+00  0.000E+00  0.000E+00
   2   33   39     5     3    4.1395E+03  0.0000E+00   4.1395E+03  0.000E+00  0.000E+00  0.000E+00  2.03203E+03  3.301E-02  3.000E+00  0.000E+00  0.000E+00  0.000E+00
   2   32   40     5     4    4.1395E+03  0.0000E+00   4.1395E+03  0.000E+00  0.000E+00  0.000E+00  2.03003E+03  3.261E-02  3.000E+00  0.000E+00  0.000E+00  0.000E+00
   2   32   41     5     5    4.1395E+03  0.0000E+00   4.1395E+03  0.000E+00  0.000E+00  0.000E+00  2.02603E+03  2.729E-02  3.000E+00  0.000E+00  0.000E+00  0.000E+00
   2   32   42     5     6    4.1395E+03  0.0000E+00   4.1395E+03  0.000E+00  0.000E+00  0.000E+00  2.02203E+03  3.209E-02  3.000E+00  0.000E+00  0.000E+00  0.000E+00
   2   32   43     5     7    4.1395E+03  0.0000E+00   4.1395E+03  0.000E+00  0.000E+00  0.000E+00  2.02004E+03  3.555E-02  3.000E+00  0.000E+00  0.000E+00  0.000E+00
   2   33   44     5     8    4.1395E+03  0.0000E+00   4.1395E+03  0.000E+00  0.000E+00  0.000E+00  2.01904E+03  3.560E-02  3.000E+00  0.000E+00  0.000E+00  0.000E+00
   2   34   47     6     1    2.8081E+03  2.7452E+00   2.8054E+03  0.000E+00  0.000E+00  0.000E+00  2.00702E+03  1.714E-02  3.000E+00  6.750E+02  0.000E+00  0.000E+00
   2   34   48     6     2    2.8054E+03 -1.2593E+02   2.9313E+03  0.000E+00  0.000E+00  0.000E+00  2.00102E+03  2.262E-02  3.000E+00  1.630E+03  0.000E+00  0.000E+00
   2   35   49     6     3    2.9313E+03 -2.5689E+02   3.1882E+03  0.000E+00  0.000E+00  0.000E+00  1.99402E+03  2.473E-02  3.000E+00  1.630E+03  0.000E+00  0.000E+00
   2   35   50     6     4    3.1882E+03 -1.8623E+02   3.3744E+03  0.000E+00  0.000E+00  0.000E+00  1.99003E+03  3.087E-02  3.000E+00  1.350E+03  0.000E+00  0.000E+00
   2   35   51     6     5    3.3744E+03  3.3939E+01   3.3405E+03  0.000E+00  0.000E+00  0.000E+00  1.98903E+03  3.136E-02  3.000E+00  1.630E+03  0.000E+00  0.000E+00
   2   36   52     6     6    3.3405E+03 -1.1314E+02   3.4536E+03  0.000E+00  0.000E+00  0.000E+00  1.98403E+03  2.796E-02  3.000E+00  1.630E+03  0.000E+00  0.000E+00
   2   36   53     6     7    3.4536E+03 -2.5180E+02   3.7054E+03  0.000E+00  0.000E+00  0.000E+00  1.98004E+03  3.680E-02  3.000E+00  1.630E+03  0.000E+00  0.000E+00
   2   37   54     6     8    3.7054E+03 -3.8900E+01   3.7443E+03  0.000E+00  0.000E+00  0.000E+00  1.98004E+03  3.952E-02  3.000E+00  1.909E+03  0.000E+00  0.000E+00
   2   36   55     6     9    3.7443E+03 -8.3854E+01   3.8282E+03  0.000E+00  0.000E+00  0.000E+00  1.97603E+03  3.032E-02  3.000E+00  9.546E+02  0.000E+00  0.000E+00
   2   36   34     7     1    1.4986E+03 -4.9577E+01   1.5482E+03  0.000E+00  0.000E+00  0.000E+00  2.07701E+03  1.126E-02  3.000E+00  9.546E+02  0.000E+00  0.000E+00
   2   35   35     7     2    1.5482E+03 -1.0579E+02   1.6540E+03  0.000E+00  0.000E+00  0.000E+00  2.06702E+03  1.528E-02  3.000E+00  1.630E+03  0.000E+00  0.000E+00
   2   35   36     7     3    1.6540E+03  3.3141E+01   1.6209E+03  0.000E+00  0.000E+00  0.000E+00  2.06202E+03  1.527E-02  3.000E+00  1.350E+03  0.000E+00  0.000E+00
   2   35   37     7     4    1.6209E+03 -6.1387E+01   1.6823E+03  0.000E+00  0.000E+00  0.000E+00  2.05401E+03  1.172E-02  3.000E+00  6.750E+02  0.000E+00  0.000E+00
   2   52   49     8     1    0.0000E+00 -1.8949E+02   1.8949E+02  0.000E+00  0.000E+00  0.000E+00  2.12100E+03  2.736E-03  3.000E+00  1.909E+03  0.000E+00  0.000E+00
   2   51   48     8     2    1.8949E+02 -2.3519E+02   4.2467E+02  0.000E+00  0.000E+00  0.000E+00  2.11701E+03  8.841E-03  3.000E+00  1.909E+03  0.000E+00  0.000E+00
   2   50   47     8     3    4.2467E+02  1.9368E+02   2.3099E+02  0.000E+00  0.000E+00  0.000E+00  2.11701E+03  7.122E-03  3.000E+00  1.630E+03  0.000E+00  0.000E+00
   2   49   47     8     4    2.3099E+02 -2.5988E+02   4.9087E+02  0.000E+00  0.000E+00  0.000E+00  2.10901E+03  7.057E-03  3.000E+00  1.630E+03  0.000E+00  0.000E+00
   2   48   46     8     5    4.9087E+02  2.1414E+01   4.6945E+02  0.000E+00  0.000E+00  0.000E+00  2.10701E+03  1.102E-02  3.000E+00  1.630E+03  0.000E+00  0.000E+00
   2   47   46     8     6    4.6945E+02  1.8958E+02   2.7987E+02  0.000E+00  0.000E+00  0.000E+00  2.10501E+03  8.978E-03  3.000E+00  1.350E+03  0.000E+00  0.000E+00
   2   46   46     8     7    2.7987E+02  8.1000E+01   1.9887E+02  0.000E+00  0.000E+00  0.000E+00  2.10301E+03  6.076E-03  3.000E+00  1.350E+03  8.443E+01 -3.435E+00
   2   45   46     8     8    1.9887E+02  8.1000E+01   1.1787E+02  0.000E+00  0.000E+00  0.000E+00  2.09900E+03  3.852E-03  3.000E+00  1.350E+03  0.000E+00  8.100E+01
   2   44   46     8     9    1.1787E+02  8.1000E+01   3.6874E+01  0.000E+00  0.000E+00  0.000E+00  2.09100E+03  2.184E-03  3.000E+00  1.350E+03  0.000E+00  8.100E+01
   2   43   46     8    10    3.6874E+01  3.6874E+01   0.0000E+00  0.000E+00  0.000E+00  0.000E+00  2.08000E+03  3.149E-04  3.000E+00  1.350E+03  0.000E+00  3.687E+01
   2   42   46     8    11    0.0000E+00  0.0000E+00   0.0000E+00  0.000E+00  0.000E+00  0.000E+00  2.07200E+03  0.000E+00  3.000E+00  1.630E+03  0.000E+00  0.000E+00
   2   41   45     8    12    0.0000E+00  0.0000E+00   0.0000E+00  0.000E+00  0.000E+00  0.000E+00  2.06000E+03  0.000E+00  3.000E+00  1.630E+03  0.000E+00  0.000E+00
   2   40   45     8    13    0.0000E+00  0.0000E+00   0.0000E+00  0.000E+00  0.000E+00  0.000E+00  2.05400E+03  0.000E+00  3.000E+00  1.350E+03  0.000E+00  0.000E+00
   2   39   45     8    14    0.0000E+00  0.0000E+00   0.0000E+00  0.000E+00  0.000E+00  0.000E+00  2.04600E+03  0.000E+00  3.000E+00  1.350E+03  0.000E+00  0.000E+00
   2   38   45     8    15    0.0000E+00  0.0000E+00   0.0000E+00  0.000E+00  0.000E+00  0.000E+00  2.03500E+03  0.000E+00  3.000E+00  1.350E+03  0.000E+00  0.000E+00
   2   37   45     8    16    0.0000E+00  0.0000E+00   0.0000E+00  0.000E+00  0.000E+00  0.000E+00  2.02700E+03  0.000E+00  3.000E+00  1.630E+03  0.000E+00  0.000E+00
   2   36   46     8    17    0.0000E+00  0.0000E+00   0.0000E+00  0.000E+00  0.000E+00  0.000E+00  2.02100E+03  0.000E+00  3.000E+00  1.630E+03  0.000E+00  0.000E+00
   2   35   46     8    18    0.0000E+00  0.0000E+00   0.0000E+00  0.000E+00  0.000E+00  0.000E+00  2.01400E+03  0.000E+00  3.000E+00  1.630E+03  0.000E+00  0.000E+00
   2   34   47     8    19    0.0000E+00 -1.2027E+01   1.2027E+01  0.000E+00  0.000E+00  0.000E+00  2.00700E+03  4.762E-04  3.000E+00  9.546E+02  0.000E+00  0.000E+00
   2   37   26     9     1    0.0000E+00  0.0000E+00   0.0000E+00  0.000E+00  0.000E+00  0.000E+00  2.14700E+03  0.000E+00  3.000E+00  1.350E+03  0.000E+00  0.000E+00
   2   37   27     9     2    0.0000E+00  0.0000E+00   0.0000E+00  0.000E+00  0.000E+00  0.000E+00  2.13400E+03  0.000E+00  3.000E+00  1.350E+03  0.000E+00  0.000E+00
   2   37   28     9     3    0.0000E+00 -1.1666E+02   1.1666E+02  0.000E+00  0.000E+00  0.000E+00  2.12500E+03  1.950E-03  3.000E+00  1.630E+03  0.000E+00  0.000E+00
   2   36   29     9     4    1.1666E+02  1.1666E+02   0.0000E+00  0.000E+00  0.000E+00  0.000E+00  2.11500E+03  6.760E-04  3.000E+00  1.630E+03  0.000E+00  0.000E+00
   2   36   30     9     5    0.0000E+00 -5.8099E+01   5.8099E+01  0.000E+00  0.000E+00  0.000E+00  2.10700E+03  1.254E-03  3.000E+00  1.350E+03  0.000E+00  0.000E+00
   2   36   31     9     6    5.8099E+01 -1.8519E+02   2.4329E+02  0.000E+00  0.000E+00  0.000E+00  2.09800E+03  3.430E-03  3.000E+00  1.350E+03  0.000E+00  0.000E+00
   2   36   32     9     7    2.4329E+02 -1.3265E+02   3.7594E+02  0.000E+00  0.000E+00  0.000E+00  2.09101E+03  5.499E-03  3.000E+00  1.350E+03  0.000E+00  0.000E+00
   2   36   33     9     8    3.7594E+02 -1.3625E+02   5.1219E+02  0.000E+00  0.000E+00  0.000E+00  2.08401E+03  6.828E-03  3.000E+00  1.350E+03  0.000E+00  0.000E+00
   2   36   34     9     9    5.1219E+02 -3.8721E+01   5.5091E+02  0.000E+00  0.000E+00  0.000E+00  2.07701E+03  5.828E-03  3.000E+00  6.750E+02  0.000E+00  0.000E+00
   2   58   37    10     1    0.0000E+00  0.0000E+00   0.0000E+00  0.000E+00  0.000E+00  0.000E+00  2.15000E+03  0.000E+00  3.000E+00  1.350E+03  0.000E+00  0.000E+00
   2   57   37    10     2    0.0000E+00 -6.5669E+01   6.5669E+01  0.000E+00  0.000E+00  0.000E+00  2.14700E+03  1.864E-03  3.000E+00  1.630E+03  0.000E+00  0.000E+00
   2   56   38    10     3    6.5669E+01  5.8915E+01   6.7537E+00  0.000E+00  0.000E+00  0.000E+00  2.14300E+03  1.833E-03  3.000E+00  1.630E+03  0.000E+00  0.000E+00
   2   55   38    10     4    6.7537E+00 -1.7314E+02   1.7990E+02  0.000E+00  0.000E+00  0.000E+00  2.13800E+03  3.167E-03  3.000E+00  1.350E+03  0.000E+00  0.000E+00
   2   54   38    10     5    1.7990E+02 -1.1468E+02   2.9458E+02  0.000E+00  0.000E+00  0.000E+00  2.13501E+03  6.044E-03  3.000E+00  1.350E+03  0.000E+00  0.000E+00
   2   53   38    10     6    2.9458E+02 -1.0661E+02   4.0119E+02  0.000E+00  0.000E+00  0.000E+00  2.13201E+03  7.604E-03  3.000E+00  1.350E+03  0.000E+00  0.000E+00
   2   52   38    10     7    4.0119E+02 -1.6295E+02   5.6414E+02  0.000E+00  0.000E+00  0.000E+00  2.12901E+03  1.106E-02  3.000E+00  1.630E+03  0.000E+00  0.000E+00
   2   51   39    10     8    5.6414E+02  2.1463E+01   5.4268E+02  0.000E+00  0.000E+00  0.000E+00  2.12801E+03  1.201E-02  3.000E+00  1.630E+03  0.000E+00  0.000E+00
   2   50   39    10     9    5.4268E+02 -8.4555E+01   6.2723E+02  0.000E+00  0.000E+00  0.000E+00  2.12501E+03  1.049E-02  3.000E+00  1.630E+03  0.000E+00  0.000E+00
   2   49   38    10    10    6.2723E+02 -1.5494E+02   7.8218E+02  0.000E+00  0.000E+00  0.000E+00  2.12101E+03  1.230E-02  3.000E+00  1.909E+03  0.000E+00  0.000E+00
   2   48   37    10    11    7.8218E+02  2.2555E+01   7.5962E+02  0.000E+00  0.000E+00  0.000E+00  2.11801E+03  1.105E-02  3.000E+00  1.909E+03  0.000E+00  0.000E+00
   2   47   36    10    12    7.5962E+02 -3.3953E+02   1.0992E+03  0.000E+00  0.000E+00  0.000E+00  2.10901E+03  1.178E-02  3.000E+00  1.630E+03  0.000E+00  0.000E+00
   2   46   36    10    13    1.0992E+03 -1.3347E+02   1.2326E+03  0.000E+00  0.000E+00  0.000E+00  2.10601E+03  1.500E-02  3.000E+00  1.350E+03  0.000E+00  0.000E+00
   2   45   36    10    14    1.2326E+03 -1.6825E+02   1.4009E+03  0.000E+00  0.000E+00  0.000E+00  2.10202E+03  1.614E-02  3.000E+00  1.350E+03  0.000E+00  0.000E+00
   2   44   36    10    15    1.4009E+03 -9.8749E+01   1.4996E+03  0.000E+00  0.000E+00  0.000E+00  2.09902E+03  1.791E-02  3.000E+00  1.350E+03  0.000E+00  0.000E+00
   2   43   36    10    16    1.4996E+03 -1.9005E+01   1.5186E+03  0.000E+00  0.000E+00  0.000E+00  2.09602E+03  1.718E-02  3.000E+00  1.630E+03  0.000E+00  0.000E+00
   2   42   37    10    17    1.5186E+03  1.8000E+02   1.3386E+03  0.000E+00  0.000E+00  0.000E+00  2.09001E+03  1.399E-02  3.000E+00  1.630E+03  0.000E+00  0.000E+00
   2   41   37    10    18    1.3386E+03 -2.6281E+02   1.6014E+03  0.000E+00  0.000E+00  0.000E+00  2.08001E+03  1.345E-02  3.000E+00  1.350E+03  0.000E+00  0.000E+00
   2   40   37    10    19    1.6014E+03 -3.2449E+02   1.9259E+03  0.000E+00  0.000E+00  0.000E+00  2.07402E+03  1.887E-02  3.000E+00  1.630E+03  0.000E+00  0.000E+00
   2   39   38    10    20    1.9259E+03 -2.7484E+01   1.9534E+03  0.000E+00  0.000E+00  0.000E+00  2.07102E+03  2.154E-02  3.000E+00  1.630E+03  0.000E+00  0.000E+00
   2   38   38    10    21    1.9534E+03  3.2565E+01   1.9208E+03  0.000E+00  0.000E+00  0.000E+00  2.06702E+03  1.934E-02  3.000E+00  1.630E+03  0.000E+00  0.000E+00
   2   37   37    10    22    1.9208E+03 -2.8417E+02   2.2050E+03  0.000E+00  0.000E+00  0.000E+00  2.06102E+03  2.008E-02  3.000E+00  1.630E+03  0.000E+00  0.000E+00
   2   36   37    10    23    2.2050E+03 -1.9409E+02   2.3991E+03  0.000E+00  0.000E+00  0.000E+00  2.05702E+03  2.256E-02  3.000E+00  1.350E+03  0.000E+00  0.000E+00
   2   35   37    10    24    2.3991E+03 -5.8143E+01   2.4572E+03  0.000E+00  0.000E+00  0.000E+00  2.05402E+03  1.652E-02  3.000E+00  6.750E+02  0.000E+00  0.000E+00
   2   36   55    11     1    4.0825E+03 -6.2235E+01   4.1447E+03  0.000E+00  0.000E+00  0.000E+00  1.97603E+03  2.596E-02  3.000E+00  6.750E+02  0.000E+00  0.000E+00
   2   36   56    11     2    4.1447E+03 -1.0590E+02   4.2506E+03  0.000E+00  0.000E+00  0.000E+00  1.97504E+03  4.414E-02  3.000E+00  1.630E+03  0.000E+00  0.000E+00
   2   37   57    11     3    4.2506E+03 -1.1085E+02   4.3615E+03  0.000E+00  0.000E+00  0.000E+00  1.97304E+03  4.482E-02  3.000E+00  1.630E+03  0.000E+00  0.000E+00
   2   37   58    11     4    4.3615E+03 -6.5083E+01   4.4265E+03  0.000E+00  0.000E+00  0.000E+00  1.97206E+03  5.961E-02  3.000E+00  1.350E+03  0.000E+00  0.000E+00
   2   37   59    11     5    4.4265E+03  7.2244E+01   4.3543E+03  0.000E+00  0.000E+00  0.000E+00  1.97205E+03  4.840E-02  3.000E+00  1.350E+03  0.000E+00  0.000E+00
   2   37   60    11     6    4.3543E+03 -3.5456E+01   4.3898E+03  0.000E+00  0.000E+00  0.000E+00  1.97004E+03  3.880E-02  3.000E+00  1.630E+03  0.000E+00  0.000E+00
   2   38   61    11     7    4.3898E+03 -1.4481E+02   4.5346E+03  0.000E+00  0.000E+00  0.000E+00  1.96704E+03  3.551E-02  3.000E+00  1.630E+03  0.000E+00  0.000E+00
   2   38   62    11     8    4.5346E+03 -1.0187E+02   4.6364E+03  0.000E+00  0.000E+00  0.000E+00  1.96303E+03  3.277E-02  3.000E+00  6.750E+02  0.000E+00  0.000E+00
   2   51   11    12     1    0.0000E+00 -3.6356E+02   3.6356E+02  0.000E+00  0.000E+00  0.000E+00  2.38700E+03  3.871E-03  3.000E+00  1.909E+03  0.000E+00  0.000E+00
   2   50   12    12     2    3.6356E+02 -5.3190E+01   4.1675E+02  0.000E+00  0.000E+00  0.000E+00  2.37501E+03  5.837E-03  3.000E+00  1.630E+03  0.000E+00  0.000E+00
   2   49   12    12     3    4.1675E+02 -3.7011E+02   7.8687E+02  0.000E+00  0.000E+00  0.000E+00  2.36501E+03  7.911E-03  3.000E+00  1.630E+03  0.000E+00  0.000E+00
   2   48   13    12     4    7.8687E+02 -1.5639E+02   9.4325E+02  0.000E+00  0.000E+00  0.000E+00  2.35601E+03  1.056E-02  3.000E+00  1.630E+03  0.000E+00  0.000E+00
   2   48   14    12     5    9.4325E+02 -1.6146E+02   1.1047E+03  0.000E+00  0.000E+00  0.000E+00  2.35001E+03  1.146E-02  3.000E+00  1.630E+03  0.000E+00  0.000E+00
   2   47   15    12     6    1.1047E+03 -1.4721E+02   1.2519E+03  0.000E+00  0.000E+00  0.000E+00  2.34001E+03  1.271E-02  3.000E+00  1.630E+03  0.000E+00  0.000E+00
   2   47   16    12     7    1.2519E+03 -1.3489E+02   1.3868E+03  0.000E+00  0.000E+00  0.000E+00  2.33501E+03  1.493E-02  3.000E+00  1.630E+03  0.000E+00  0.000E+00
   2   46   17    12     8    1.3868E+03  7.5607E+01   1.3112E+03  0.000E+00  0.000E+00  0.000E+00  2.32901E+03  1.407E-02  3.000E+00  1.630E+03  0.000E+00  0.000E+00
   2   46   18    12     9    1.3112E+03  1.5811E+02   1.1531E+03  0.000E+00  0.000E+00  0.000E+00  2.32101E+03  1.085E-02  3.000E+00  1.350E+03  0.000E+00  0.000E+00
   2   46   19    12    10    1.1531E+03 -4.4696E+02   1.6000E+03  0.000E+00  0.000E+00  0.000E+00  2.30601E+03  1.319E-02  3.000E+00  1.350E+03  0.000E+00  0.000E+00
   2   46   20    12    11    1.6000E+03  7.5728E+02   8.4277E+02  0.000E+00  0.000E+00  0.000E+00  2.30601E+03  1.035E-02  3.000E+00  1.630E+03  0.000E+00  0.000E+00
   2   45   21    12    12    8.4277E+02 -3.1311E+02   1.1559E+03  0.000E+00  0.000E+00  0.000E+00  2.27401E+03  8.131E-03  3.000E+00  1.909E+03  0.000E+00  0.000E+00
   2   44   22    12    13    1.1559E+03 -1.6983E+02   1.3257E+03  0.000E+00  0.000E+00  0.000E+00  2.25001E+03  1.002E-02  3.000E+00  1.909E+03  0.000E+00  0.000E+00
   2   43   23    12    14    1.3257E+03  1.5166E+02   1.1740E+03  0.000E+00  0.000E+00  0.000E+00  2.23101E+03  1.014E-02  3.000E+00  1.909E+03  0.000E+00  0.000E+00
   2   42   24    12    15    1.1740E+03 -7.2683E+01   1.2467E+03  0.000E+00  0.000E+00  0.000E+00  2.20801E+03  1.039E-02  3.000E+00  1.630E+03  0.000E+00  0.000E+00
   2   42   25    12    16    1.2467E+03 -9.9066E+00   1.2566E+03  0.000E+00  0.000E+00  0.000E+00  2.20001E+03  1.142E-02  3.000E+00  1.350E+03  0.000E+00  0.000E+00
   2   42   26    12    17    1.2566E+03  1.3027E+02   1.1264E+03  0.000E+00  0.000E+00  0.000E+00  2.18801E+03  9.821E-03  3.000E+00  1.350E+03  0.000E+00  0.000E+00
   2   42   27    12    18    1.1264E+03 -2.5856E+02   1.3849E+03  0.000E+00  0.000E+00  0.000E+00  2.17001E+03  1.024E-02  3.000E+00  1.350E+03  0.000E+00  0.000E+00
   2   42   28    12    19    1.3849E+03 -8.8845E+01   1.4738E+03  0.000E+00  0.000E+00  0.000E+00  2.15901E+03  1.183E-02  3.000E+00  1.630E+03  0.000E+00  0.000E+00
   2   41   29    12    20    1.4738E+03  1.5696E+02   1.3168E+03  0.000E+00  0.000E+00  0.000E+00  2.14201E+03  1.175E-02  3.000E+00  1.909E+03  0.000E+00  0.000E+00
   2   40   30    12    21    1.3168E+03  8.3997E+01   1.2328E+03  0.000E+00  0.000E+00  0.000E+00  2.12701E+03  1.171E-02  3.000E+00  1.909E+03  0.000E+00  0.000E+00
   2   39   31    12    22    1.2328E+03  1.1455E+02   1.1183E+03  0.000E+00  0.000E+00  0.000E+00  2.11501E+03  1.156E-02  3.000E+00  1.909E+03  1.149E+02 -3.319E-01
   2   38   32    12    23    1.1183E+03  1.1455E+02   1.0037E+03  0.000E+00  0.000E+00  0.000E+00  2.10301E+03  1.061E-02  3.000E+00  1.909E+03  1.209E+02 -6.306E+00
   2   37   33    12    24    1.0037E+03  1.0834E+02   8.9536E+02  0.000E+00  0.000E+00  0.000E+00  2.08901E+03  9.927E-03  3.000E+00  1.909E+03  0.000E+00  0.000E+00
   2   36   34    12    25    8.9536E+02 -5.2375E+01   9.4773E+02  0.000E+00  0.000E+00  0.000E+00  2.07701E+03  8.327E-03  3.000E+00  9.546E+02  0.000E+00  0.000E+00
   2   38   62    13     1    4.8094E+03 -1.0658E+02   4.9159E+03  0.000E+00  0.000E+00  0.000E+00  1.96303E+03  2.579E-02  3.000E+00  6.750E+02  0.000E+00  0.000E+00
   2   38   63    13     2    4.9159E+03 -3.4809E+01   4.9508E+03  0.000E+00  0.000E+00  0.000E+00  1.96469E+03  1.694E+00  3.000E+00  1.350E+03  0.000E+00  0.000E+00
   2   38   64    13     3    4.9508E+03  1.9484E+00   4.9488E+03  0.000E+00  0.000E+00  0.000E+00  1.96470E+03  1.697E+00  3.000E+00  1.350E+03  0.000E+00  0.000E+00
   2   38   65    13     4    4.9488E+03  1.1382E+01   4.9374E+03  0.000E+00  0.000E+00  0.000E+00  1.96305E+03  4.601E-02  3.000E+00  6.750E+02  0.000E+00  0.000E+00
   2   46   61    14     1    0.0000E+00  0.0000E+00   0.0000E+00  0.000E+00  0.000E+00  0.000E+00  2.01700E+03  0.000E+00  3.000E+00  1.350E+03  0.000E+00  0.000E+00
   2   45   61    14     2    0.0000E+00  0.0000E+00   0.0000E+00  0.000E+00  0.000E+00  0.000E+00  2.01000E+03  0.000E+00  3.000E+00  1.350E+03  0.000E+00  0.000E+00
   2   44   61    14     3    0.0000E+00  0.0000E+00   0.0000E+00  0.000E+00  0.000E+00  0.000E+00  2.00600E+03  0.000E+00  3.000E+00  1.350E+03  0.000E+00  0.000E+00
   2   43   61    14     4    0.0000E+00  0.0000E+00   0.0000E+00  0.000E+00  0.000E+00  0.000E+00  1.99900E+03  0.000E+00  3.000E+00  1.350E+03  0.000E+00  0.000E+00
   2   42   61    14     5    0.0000E+00  0.0000E+00   0.0000E+00  0.000E+00  0.000E+00  0.000E+00  1.99300E+03  0.000E+00  3.000E+00  1.350E+03  0.000E+00  0.000E+00
   2   41   61    14     6    0.0000E+00  0.0000E+00   0.0000E+00  0.000E+00  0.000E+00  0.000E+00  1.98500E+03  0.000E+00  3.000E+00  1.350E+03  0.000E+00  0.000E+00
   2   40   61    14     7    0.0000E+00  0.0000E+00   0.0000E+00  0.000E+00  0.000E+00  0.000E+00  1.97800E+03  0.000E+00  3.000E+00  1.350E+03  0.000E+00  0.000E+00
   2   39   61    14     8    0.0000E+00  0.0000E+00   0.0000E+00  0.000E+00  0.000E+00  0.000E+00  1.97300E+03  0.000E+00  3.000E+00  1.630E+03  0.000E+00  0.000E+00
   2   38   62    14     9    0.0000E+00 -1.7292E+02   1.7292E+02  0.000E+00  0.000E+00  0.000E+00  1.96300E+03  2.550E-03  3.000E+00  9.546E+02  0.000E+00  0.000E+00
   2   39   70    15     1    5.2276E+03  7.1925E-01   5.2269E+03  0.000E+00  0.000E+00  0.000E+00  1.94603E+03  2.617E-02  3.000E+00  6.750E+02  0.000E+00  0.000E+00
   2   40   75    16     1    1.5000E+04 -2.6629E+01   1.5027E+04  0.000E+00  0.000E+00  0.000E+00  1.93406E+03  6.245E-02  3.000E+00  6.750E+02  0.000E+00  0.000E+00
   2   40   76    16     2    1.5027E+04  0.0000E+00   1.5027E+04  0.000E+00  0.000E+00  0.000E+00  1.93309E+03  8.966E-02  3.000E+00  0.000E+00  0.000E+00  0.000E+00
   2   55   73    17     1    0.0000E+00  0.0000E+00   0.0000E+00  0.000E+00  0.000E+00  0.000E+00  2.04100E+03  0.000E+00  3.000E+00  1.350E+03  0.000E+00  0.000E+00
   2   54   73    17     2    0.0000E+00  0.0000E+00   0.0000E+00  0.000E+00  0.000E+00  0.000E+00  2.02900E+03  0.000E+00  3.000E+00  1.350E+03  0.000E+00  0.000E+00
   2   53   73    17     3    0.0000E+00  0.0000E+00   0.0000E+00  0.000E+00  0.000E+00  0.000E+00  2.01700E+03  0.000E+00  3.000E+00  1.350E+03  0.000E+00  0.000E+00
   2   52   73    17     4    0.0000E+00  0.0000E+00   0.0000E+00  0.000E+00  0.000E+00  0.000E+00  2.01000E+03  0.000E+00  3.000E+00  1.630E+03  0.000E+00  0.000E+00
   2   51   72    17     5    0.0000E+00  0.0000E+00   0.0000E+00  0.000E+00  0.000E+00  0.000E+00  1.99800E+03  0.000E+00  3.000E+00  1.630E+03  0.000E+00  0.000E+00
   2   50   72    17     6    0.0000E+00 -4.9228E+01   4.9228E+01  0.000E+00  0.000E+00  0.000E+00  1.97500E+03  1.261E-03  3.000E+00  1.350E+03  0.000E+00  0.000E+00
   2   49   72    17     7    4.9228E+01  0.0000E+00   4.9228E+01  0.000E+00  0.000E+00  0.000E+00  1.95600E+03  1.817E-03  3.000E+00  0.000E+00  0.000E+00  0.000E+00
   2   48   72    17     8    4.9228E+01  0.0000E+00   4.9228E+01  0.000E+00  0.000E+00  0.000E+00  1.95200E+03  1.825E-03  3.000E+00  0.000E+00  0.000E+00  0.000E+00
   2   47   72    17     9    4.9228E+01  0.0000E+00   4.9228E+01  0.000E+00  0.000E+00  0.000E+00  1.95000E+03  1.870E-03  3.000E+00  0.000E+00  0.000E+00  0.000E+00
   2   46   72    17    10    4.9228E+01  0.0000E+00   4.9228E+01  0.000E+00  0.000E+00  0.000E+00  1.94800E+03  1.912E-03  3.000E+00  0.000E+00  0.000E+00  0.000E+00
   2   45   72    17    11    4.9228E+01  0.0000E+00   4.9228E+01  0.000E+00  0.000E+00  0.000E+00  1.94400E+03  1.929E-03  3.000E+00  0.000E+00  0.000E+00  0.000E+00
   2   44   73    17    12    4.9228E+01  0.0000E+00   4.9228E+01  0.000E+00  0.000E+00  0.000E+00  1.94200E+03  1.970E-03  3.000E+00  0.000E+00  0.000E+00  0.000E+00
   2   43   73    17    13    4.9228E+01  0.0000E+00   4.9228E+01  0.000E+00  0.000E+00  0.000E+00  1.94200E+03  2.168E-03  3.000E+00  0.000E+00  0.000E+00  0.000E+00
   2   42   73    17    14    4.9228E+01  0.0000E+00   4.9228E+01  0.000E+00  0.000E+00  0.000E+00  1.94100E+03  2.198E-03  3.000E+00  0.000E+00  0.000E+00  0.000E+00
   2   34   45    18     1    2.7042E+03 -2.5630E+01   2.7298E+03  0.000E+00  0.000E+00  0.000E+00  2.01793E+03  2.533E-02  3.000E+00  1.630E+03  0.000E+00  0.000E+00
   2   34   46    18     2    2.7298E+03 -6.9955E+01   2.7998E+03  0.000E+00  0.000E+00  0.000E+00  2.01102E+03  2.335E-02  3.000E+00  1.350E+03  0.000E+00  0.000E+00
   2   34   47    18     3    2.7998E+03  3.6691E+00   2.7961E+03  0.000E+00  0.000E+00  0.000E+00  2.00702E+03  1.851E-02  3.000E+00  6.750E+02  0.000E+00  0.000E+00
   2   41   74    19     1    1.2962E+04 -2.2070E+02   1.3183E+04  0.000E+00  0.000E+00  0.000E+00  1.93806E+03  6.377E-02  3.000E+00  1.909E+03  0.000E+00  0.000E+00
   2   40   75    19     2    1.3183E+04 -3.6042E+01   1.3219E+04  0.000E+00  0.000E+00  0.000E+00  1.93406E+03  6.414E-02  3.000E+00  9.546E+02  0.000E+00  0.000E+00
   2   39   66    20     1    0.0000E+00  0.0000E+00   0.0000E+00  0.000E+00  0.000E+00  0.000E+00  1.96250E+03  0.000E+00  1.500E+00  8.148E+02  0.000E+00  0.000E+00
   2   39   67    20     2    0.0000E+00  0.0000E+00   0.0000E+00  0.000E+00  0.000E+00  0.000E+00  1.96225E+03  0.000E+00  1.500E+00  6.750E+02  0.000E+00  0.000E+00
   2   40   68    20     3    0.0000E+00  0.0000E+00   0.0000E+00  0.000E+00  0.000E+00  0.000E+00  1.96200E+03  0.000E+00  1.500E+00  9.546E+02  0.000E+00  0.000E+00
   2   41   69    20     4    0.0000E+00  0.0000E+00   0.0000E+00  0.000E+00  0.000E+00  0.000E+00  1.96175E+03  0.000E+00  1.500E+00  8.148E+02  0.000E+00  0.000E+00
   2   42   69    20     5    0.0000E+00  0.0000E+00   0.0000E+00  0.000E+00  0.000E+00  0.000E+00  1.96150E+03  0.000E+00  1.500E+00  8.148E+02  0.000E+00  0.000E+00
   2   43   70    20     6    0.0000E+00  0.0000E+00   0.0000E+00  0.000E+00  0.000E+00  0.000E+00  1.96125E+03  0.000E+00  1.500E+00  8.148E+02  0.000E+00  0.000E+00
   2   38   66    21     1    4.9374E+03 -6.9571E+01   5.0070E+03  0.000E+00  0.000E+00  0.000E+00  1.96004E+03  3.962E-02  3.000E+00  1.350E+03  0.000E+00  0.000E+00
   2   38   67    21     2    5.0070E+03  1.7514E+01   4.9895E+03  0.000E+00  0.000E+00  0.000E+00  1.95804E+03  3.801E-02  3.000E+00  1.630E+03  0.000E+00  0.000E+00
   2   39   68    21     3    4.9895E+03 -1.0355E+01   4.9998E+03  0.000E+00  0.000E+00  0.000E+00  1.95303E+03  3.414E-02  3.000E+00  1.630E+03  0.000E+00  0.000E+00
   2   39   69    21     4    4.9998E+03 -2.0878E+02   5.2086E+03  0.000E+00  0.000E+00  0.000E+00  1.94804E+03  3.638E-02  3.000E+00  1.350E+03  0.000E+00  0.000E+00
   2   39   70    21     5    5.2086E+03  4.1919E+00   5.2044E+03  0.000E+00  0.000E+00  0.000E+00  1.94603E+03  3.132E-02  3.000E+00  6.750E+02  0.000E+00  0.000E+00
   2   38   71    22     1    4.0000E+03 -5.0446E+01   4.0504E+03  0.000E+00  0.000E+00  0.000E+00  1.94556E+03  5.985E-02  3.000E+00  3.259E+02  0.000E+00  0.000E+00
   2   38   72    22     2    4.0504E+03 -3.4625E+01   4.0851E+03  0.000E+00  0.000E+00  0.000E+00  1.94506E+03  6.022E-02  3.000E+00  3.259E+02  0.000E+00  0.000E+00
   2   39   73    22     3    4.0851E+03  7.6887E+01   4.0082E+03  0.000E+00  0.000E+00  0.000E+00  1.94456E+03  6.004E-02  3.000E+00  3.259E+02  7.383E+01  7.368E+01
   2   39   74    22     4    4.0082E+03  8.1000E+01   3.9272E+03  0.000E+00  0.000E+00  0.000E+00  1.94406E+03  5.607E-02  3.000E+00  2.700E+02  8.583E+01 -4.828E+00
   2   39   75    22     5    3.9272E+03  8.1000E+01   3.8462E+03  0.000E+00  0.000E+00  0.000E+00  1.94356E+03  5.538E-02  3.000E+00  2.700E+02  8.529E+01 -4.287E+00
   2   39   76    22     6    3.8462E+03  0.0000E+00   3.8462E+03  0.000E+00  0.000E+00  0.000E+00  1.94306E+03  5.504E-02  3.000E+00  0.000E+00  0.000E+00  0.000E+00
   2   39   71    23     1    1.2269E+03 -1.8341E+02   1.4103E+03  0.000E+00  0.000E+00  0.000E+00  1.94202E+03  1.890E-02  3.000E+00  1.630E+03  0.000E+00  0.000E+00
   2   40   72    23     2    1.4103E+03 -7.1659E+01   1.4819E+03  0.000E+00  0.000E+00  0.000E+00  1.94102E+03  2.136E-02  3.000E+00  1.630E+03  0.000E+00  0.000E+00
   2   40   73    23     3    1.4819E+03 -1.7860E+02   1.6605E+03  0.000E+00  0.000E+00  0.000E+00  1.93802E+03  1.985E-02  3.000E+00  1.350E+03  0.000E+00  0.000E+00
   2   40   74    23     4    1.6605E+03 -6.5745E+01   1.7263E+03  0.000E+00  0.000E+00  0.000E+00  1.93602E+03  2.220E-02  3.000E+00  1.350E+03  0.000E+00  0.000E+00
   2   40   75    23     5    1.7263E+03 -5.5234E+01   1.7815E+03  0.000E+00  0.000E+00  0.000E+00  1.93402E+03  2.007E-02  3.000E+00  6.750E+02  0.000E+00  0.000E+00



1
  VOLUMETRIC BUDGET FOR UNSATURATED ZONE BENEATH STREAMS AT END OF TIME STEP     3 STRESS PERIOD   2
  ------------------------------------------------------------------------------------------------

    CUMULATIVE VOLUMES             L**3    RATES FOR THIS TIME STEP         L**3/T
    ------------------                     ------------------------


          STREAM LOSS =         2639.3589            STREAM LOSS =          818.1425
    CHANGE IN STORAGE =          771.6061      CHANGE IN STORAGE =          108.1747
       RECHARGE TO GW =         1867.7533         RECHARGE TO GW =          709.9679

             TOTAL IN =         2639.3589               TOTAL IN =          818.1425

            TOTAL OUT =         2639.3594              TOTAL OUT =          818.1426

             IN - OUT =       -4.8828E-04               IN - OUT =       -1.8311E-04

  PERCENT DISCREPANCY =           -0.00      PERCENT DISCREPANCY =            -0.00



 ***WARNING***NUZTOP IS 3 AND ALL LAYERS  IN ROW           39  AND COLUMN 
          76  ARE INACTIVE.
 UNSATURATED FLOW WILL NOT BE ADDED TO ANY LAYER-- SOME WATER MAY FLOW PAST
  LOWEST LAYER
 ***WARNING***NUZTOP IS 3 AND ALL LAYERS  IN ROW           40  AND COLUMN 
          76  ARE INACTIVE.
 UNSATURATED FLOW WILL NOT BE ADDED TO ANY LAYER-- SOME WATER MAY FLOW PAST
  LOWEST LAYER


UNSATURATED ZONE PACKAGE VOLUMETRIC BUDGET FOR  TIME STEP     3 STRESS PERIOD    2
  ------------------------------------------------------------------------------



     CUMULATIVE VOLUMES      L**3       RATES FOR THIS TIME STEP      L**3/T
     ------------------                 ------------------------

           IN:                                      IN:
           ---                                      ---
        INFILTRATION =       26039.6903          INFILTRATION =       0.0000E+00

          OUT:                                     OUT:
          ----                                     ----
              UZF ET =       83470.7945                UZF ET =       27109.9739
        UZF RECHARGE =      117973.2230          UZF RECHARGE =       29227.9625

            IN - OUT =     -175404.3272              IN - OUT =      -56337.9364

          STORAGE:                                 STORAGE:
          --------                                 --------
      STORAGE CHANGE =     -174805.6882        STORAGE CHANGE =      -56207.7619

 PERCENT DISCREPANCY IS DIFFERENCE BETWEEN IN-OUT MINUS CHANGE IN STORAGE
 DIVIDED BY THE AVERAGE OF IN AND OUT TIMES 100

 PERCENT DISCREPANCY =          -0.07     PERCENT DISCREPANCY =          -0.23






1
  VOLUMETRIC BUDGET FOR ENTIRE MODEL AT END OF TIME STEP    3, STRESS PERIOD   2
  ------------------------------------------------------------------------------

     CUMULATIVE VOLUMES      L**3       RATES FOR THIS TIME STEP      L**3/T
     ------------------                 ------------------------

           IN:                                      IN:
           ---                                      ---
             STORAGE     =         256.9388               STORAGE     =         105.8573
       CONSTANT HEAD     =          16.3139         CONSTANT HEAD     =           2.2636
      STREAM LEAKAGE     =       16984.4980        STREAM LEAKAGE     =        4096.9380
       LAKE  SEEPAGE     =        1333.2072         LAKE  SEEPAGE     =         313.7147
        UZF RECHARGE     =      117986.6250          UZF RECHARGE     =       29227.9902
               GW ET     =           0.0000                 GW ET     =           0.0000
     SURFACE LEAKAGE     =           0.0000       SURFACE LEAKAGE     =           0.0000

                TOTAL IN =      136577.5781                  TOTAL IN =       33746.7617

          OUT:                                     OUT:
          ----                                     ----
             STORAGE     =       55500.1914               STORAGE     =       16623.3164
       CONSTANT HEAD     =         249.4079         CONSTANT HEAD     =          62.9127
      STREAM LEAKAGE     =       41688.5234        STREAM LEAKAGE     =       11600.7949
       LAKE  SEEPAGE     =       10551.2236         LAKE  SEEPAGE     =        2633.1492
        UZF RECHARGE     =           0.0000          UZF RECHARGE     =           0.0000
               GW ET     =       27854.3027                 GW ET     =        2610.8381
     SURFACE LEAKAGE     =         934.5117       SURFACE LEAKAGE     =         287.0046

               TOTAL OUT =      136778.1562                 TOTAL OUT =       33818.0156

                IN - OUT =        -200.5781                  IN - OUT =         -71.2539

     PERCENT DISCREPANCY =          -0.15         PERCENT DISCREPANCY =          -0.21






         TIME SUMMARY AT END OF TIME STEP    3 IN STRESS PERIOD    2
                    SECONDS     MINUTES      HOURS       DAYS        YEARS
                    -----------------------------------------------------------
   TIME STEP LENGTH  86400.      1440.0      24.000      1.0000     2.73785E-03
 STRESS PERIOD TIME 2.59200E+05  4320.0      72.000      3.0000     8.21355E-03
         TOTAL TIME 3.45600E+05  5760.0      96.000      4.0000     1.09514E-02
1
                                                   Max.-Head-Change                         Max.-Flux-Residual
  Residual-Control   Outer-Iter.   Inner-Iter.     Column Row Layer    Maximum-Head-Change  Column Row Layer    Maximum-Flux-Residual          L2-NORM 
          0                 1           4            51   57     2       0.2467391365E+01      63   38    2         0.4357824056E+03      0.8382562059E+03
          0                 2           3            48   18     2       0.2039554425E+01      64   38    2         0.1629739452E+03      0.2395275103E+03
          0                 3           3            48   18     2      -0.1532419134E+00      68   26    2         0.2615253333E+02      0.4759588686E+02
          0                 4           2            48   18     2      -0.1357845773E-01      68   26    2         0.7310738981E+01      0.1161835651E+02
          0                 5           2            74   39     2       0.2100527612E-02      68   26    2         0.2224872332E+01      0.3657945750E+01
          0                 6           1            74   39     2       0.7366901156E-03      68   26    2         0.7055404148E+00      0.1239693252E+01
          0                 7           1            74   39     2       0.2582328370E-03      68   26    2         0.2295821180E+00      0.4413083984E+00
          0                 8           1             4   59     2       0.1163946110E-03      68   26    2         0.7573747357E-01      0.1634003804E+00
          0                 9           1             4   59     2       0.5162113599E-04      68   26    2         0.2514392914E-01      0.6269433019E-01

    ------------------------------------------------
       NWT REQUIRED            9 OUTER ITERATIONS 
       AND A TOTAL OF         18 INNER ITERATIONS.
    ------------------------------------------------
                                                   Max.-Head-Change                         Max.-Flux-Residual
  Residual-Control   Outer-Iter.   Inner-Iter.     Column Row Layer    Maximum-Head-Change  Column Row Layer    Maximum-Flux-Residual          L2-NORM 
          0                 1           2            63   38     2       0.2939081950E-01      63   38    2         0.3796756262E+02      0.4875768578E+02
          0                 2           2            64   38     2       0.9120404869E-02      64   38    2         0.1182343875E+02      0.1339053403E+02
          0                 3           2            49   23     2       0.1685551450E-02      64   38    2         0.1115905752E+01      0.1379869306E+01
          0                 4           1            49   23     2       0.1698029952E-03      75   40    2         0.6857985979E-01      0.1711852348E+00
          0                 5           1            50   53     3       0.2375763230E-04      66   24    2         0.3554950423E-01      0.6670172908E-01

    ------------------------------------------------
       NWT REQUIRED            5 OUTER ITERATIONS 
       AND A TOTAL OF          8 INNER ITERATIONS.
    ------------------------------------------------
                                                   Max.-Head-Change                         Max.-Flux-Residual
  Residual-Control   Outer-Iter.   Inner-Iter.     Column Row Layer    Maximum-Head-Change  Column Row Layer    Maximum-Flux-Residual          L2-NORM 
          0                 1           1            49   23     2      -0.9835519611E-03      63   38    2         0.8120185426E-01      0.1622587810E+00
          0                 2           1            49   23     2      -0.8863912135E-03      63   38    2        -0.5722417406E-01      0.1525978507E+00
          0                 3           2            49   23     2       0.1681595010E-02      63   38    2        -0.5150765663E-01      0.2698602059E+00
          0                 4           1            49   23     2       0.1691765957E-03      63   38    2         0.8707704833E-01      0.1304985757E+00
          0                 5           1            63   38     2       0.2469650644E-04      63   38    2         0.4725701445E-01      0.8240123737E-01

    ------------------------------------------------
       NWT REQUIRED            5 OUTER ITERATIONS 
       AND A TOTAL OF          6 INNER ITERATIONS.
    ------------------------------------------------
                                                   Max.-Head-Change                         Max.-Flux-Residual
  Residual-Control   Outer-Iter.   Inner-Iter.     Column Row Layer    Maximum-Head-Change  Column Row Layer    Maximum-Flux-Residual          L2-NORM 
          0                 1           1            49   23     2      -0.9846946124E-03      68   26    2         0.2756432118E-01      0.1302526223E+00
          0                 2           1            49   23     2      -0.8848578227E-03      63   38    2        -0.6835544812E-01      0.1631298435E+00
          0                 3           2            49   23     2       0.1681168552E-02      63   38    2        -0.5364658099E-01      0.2710618191E+00
          0                 4           1            49   23     2       0.1691382010E-03      63   38    2         0.8697175896E-01      0.1298000182E+00
          0                 5           1            63   38     2       0.2461992885E-04      63   38    2         0.4711658643E-01      0.8224598671E-01

    ------------------------------------------------
       NWT REQUIRED            5 OUTER ITERATIONS 
       AND A TOTAL OF          6 INNER ITERATIONS.
    ------------------------------------------------

 OUTPUT CONTROL FOR STRESS PERIOD    2   TIME STEP    4
    PRINT BUDGET



 STREAM LISTING     PERIOD      2   STEP        4

 LAYER ROW COL. STREAM  RCH.   FLOW INTO    STREAM     FLOW OUT OF   OVRLND.    DIRECT     STREAM      STREAM      STREAM     STREAM  STREAMBED   FLOW TO   CHNG. UNSAT. 
                SEG.NO.  NO.   STRM. RCH.    LOSS       STRM. RCH.   RUNOFF     PRECIP       ET         HEAD        DEPTH      WIDTH  CONDCTNC.   WAT. TAB.

   2   18   62     1     1    0.0000E+00  0.0000E+00   0.0000E+00  0.000E+00  0.000E+00  0.000E+00  2.07300E+03  0.000E+00  3.000E+00  1.909E+03  0.000E+00  0.000E+00
   2   19   63     1     2    0.0000E+00 -4.6205E+01   4.6205E+01  0.000E+00  0.000E+00  0.000E+00  2.06300E+03  1.173E-03  3.000E+00  1.909E+03  0.000E+00  0.000E+00
   2   20   64     1     3    4.6205E+01 -7.2215E+01   1.1842E+02  0.000E+00  0.000E+00  0.000E+00  2.05400E+03  2.752E-03  3.000E+00  1.630E+03  0.000E+00  0.000E+00
   2   21   64     1     4    1.1842E+02 -7.3274E+01   1.9169E+02  0.000E+00  0.000E+00  0.000E+00  2.05100E+03  4.955E-03  3.000E+00  1.630E+03  0.000E+00  0.000E+00
   2   22   65     1     5    1.9169E+02 -7.4931E+00   1.9919E+02  0.000E+00  0.000E+00  0.000E+00  2.04800E+03  4.849E-03  3.000E+00  9.546E+02  0.000E+00  0.000E+00
   2   20   66     2     1    0.0000E+00  0.0000E+00   0.0000E+00  0.000E+00  0.000E+00  0.000E+00  2.05300E+03  0.000E+00  3.000E+00  1.909E+03  0.000E+00  0.000E+00
   2   21   65     2     2    0.0000E+00  0.0000E+00   0.0000E+00  0.000E+00  0.000E+00  0.000E+00  2.05100E+03  0.000E+00  3.000E+00  1.630E+03  0.000E+00  0.000E+00
   2   22   65     2     3    0.0000E+00 -8.2794E+00   8.2794E+00  0.000E+00  0.000E+00  0.000E+00  2.04800E+03  4.326E-04  3.000E+00  6.750E+02  0.000E+00  0.000E+00
   2   22   65     3     1    2.0747E+02 -5.4898E+00   2.1296E+02  0.000E+00  0.000E+00  0.000E+00  2.04800E+03  4.565E-03  3.000E+00  6.750E+02  0.000E+00  0.000E+00
   2   23   65     3     2    2.1296E+02 -6.7350E+01   2.8031E+02  0.000E+00  0.000E+00  0.000E+00  2.04501E+03  8.058E-03  3.000E+00  1.630E+03  0.000E+00  0.000E+00
   2   24   66     3     3    2.8031E+02  1.5811E+00   2.7873E+02  0.000E+00  0.000E+00  0.000E+00  2.04530E+03  3.026E-01  3.000E+00  1.909E+03  0.000E+00  0.000E+00
   2   25   67     3     4    2.7873E+02  2.4027E+02   3.8459E+01  0.000E+00  0.000E+00  0.000E+00  2.04501E+03  6.483E-03  3.000E+00  1.909E+03  0.000E+00  0.000E+00
   2   26   68     3     5    3.8459E+01  3.8459E+01   0.0000E+00  0.000E+00  0.000E+00  0.000E+00  2.04200E+03  5.451E-04  3.000E+00  1.630E+03  0.000E+00  0.000E+00
   2   27   68     3     6    0.0000E+00  0.0000E+00   0.0000E+00  0.000E+00  0.000E+00  0.000E+00  2.04100E+03  0.000E+00  3.000E+00  1.630E+03  0.000E+00  0.000E+00
   2   28   69     3     7    0.0000E+00  0.0000E+00   0.0000E+00  0.000E+00  0.000E+00  0.000E+00  2.03600E+03  0.000E+00  3.000E+00  1.630E+03  0.000E+00  0.000E+00
   2   29   69     3     8    0.0000E+00  0.0000E+00   0.0000E+00  0.000E+00  0.000E+00  0.000E+00  2.02900E+03  0.000E+00  3.000E+00  1.350E+03  0.000E+00  0.000E+00
   2   30   69     3     9    0.0000E+00  0.0000E+00   0.0000E+00  0.000E+00  0.000E+00  0.000E+00  2.02300E+03  0.000E+00  3.000E+00  1.630E+03  0.000E+00  0.000E+00
   2   31   70     3    10    0.0000E+00  0.0000E+00   0.0000E+00  0.000E+00  0.000E+00  0.000E+00  2.01100E+03  0.000E+00  3.000E+00  1.630E+03  0.000E+00  0.000E+00
   2   32   70     3    11    0.0000E+00 -5.1829E+01   5.1829E+01  0.000E+00  0.000E+00  0.000E+00  2.00500E+03  1.468E-03  3.000E+00  1.350E+03  0.000E+00  0.000E+00
   2   33   70     3    12    5.1829E+01  5.1829E+01   0.0000E+00  0.000E+00  0.000E+00  0.000E+00  2.00300E+03  4.087E-04  3.000E+00  1.630E+03  5.306E+01 -1.227E+00
   2   34   69     3    13    0.0000E+00  0.0000E+00   0.0000E+00  0.000E+00  0.000E+00  0.000E+00  1.98600E+03  0.000E+00  3.000E+00  1.630E+03  0.000E+00  0.000E+00
   2   35   69     3    14    0.0000E+00 -1.1731E+02   1.1731E+02  0.000E+00  0.000E+00  0.000E+00  1.97300E+03  1.849E-03  3.000E+00  1.350E+03  0.000E+00  0.000E+00
   2   36   69     3    15    1.1731E+02  3.4154E+01   8.3161E+01  0.000E+00  0.000E+00  0.000E+00  1.96700E+03  2.795E-03  3.000E+00  1.350E+03  0.000E+00  0.000E+00
   2   37   69     3    16    8.3161E+01  8.3161E+01   0.0000E+00  0.000E+00  0.000E+00  0.000E+00  1.95900E+03  5.623E-04  3.000E+00  1.350E+03  0.000E+00  0.000E+00
   2   38   69     3    17    0.0000E+00  0.0000E+00   0.0000E+00  0.000E+00  0.000E+00  0.000E+00  1.95300E+03  0.000E+00  3.000E+00  1.630E+03  0.000E+00  0.000E+00
   2   39   70     3    18    0.0000E+00 -2.7716E+01   2.7716E+01  0.000E+00  0.000E+00  0.000E+00  1.94600E+03  8.262E-04  3.000E+00  9.546E+02  0.000E+00  0.000E+00
   2   25   49     4     1    0.0000E+00 -1.2438E+02   1.2438E+02  0.000E+00  0.000E+00  0.000E+00  2.03500E+03  2.062E-03  3.000E+00  1.909E+03  0.000E+00  0.000E+00
   2   26   50     4     2    1.2438E+02 -9.0083E+01   2.1446E+02  0.000E+00  0.000E+00  0.000E+00  2.02600E+03  4.083E-03  3.000E+00  1.909E+03  0.000E+00  0.000E+00
   2   27   51     4     3    2.1446E+02 -7.9245E+01   2.9370E+02  0.000E+00  0.000E+00  0.000E+00  2.01901E+03  5.412E-03  3.000E+00  1.630E+03  0.000E+00  0.000E+00
   2   28   51     4     4    2.9370E+02 -7.4242E+01   3.6795E+02  0.000E+00  0.000E+00  0.000E+00  2.01401E+03  6.698E-03  3.000E+00  1.630E+03  0.000E+00  0.000E+00
   2   29   52     4     5    3.6795E+02 -6.8254E+01   4.3620E+02  0.000E+00  0.000E+00  0.000E+00  2.00901E+03  7.529E-03  3.000E+00  1.630E+03  0.000E+00  0.000E+00
   2   30   52     4     6    4.3620E+02 -5.2666E+01   4.8887E+02  0.000E+00  0.000E+00  0.000E+00  2.00401E+03  7.740E-03  3.000E+00  1.350E+03  0.000E+00  0.000E+00
   2   31   52     4     7    4.8887E+02 -7.5571E+01   5.6444E+02  0.000E+00  0.000E+00  0.000E+00  1.99901E+03  9.311E-03  3.000E+00  1.350E+03  0.000E+00  0.000E+00
   2   32   52     4     8    5.6444E+02  4.3737E+00   5.6006E+02  0.000E+00  0.000E+00  0.000E+00  1.99701E+03  9.844E-03  3.000E+00  1.630E+03  0.000E+00  0.000E+00
   2   33   53     4     9    5.6006E+02  8.0825E+00   5.5198E+02  0.000E+00  0.000E+00  0.000E+00  1.99101E+03  9.591E-03  3.000E+00  1.909E+03  0.000E+00  0.000E+00
   2   34   54     4    10    5.5198E+02  1.9954E+02   3.5244E+02  0.000E+00  0.000E+00  0.000E+00  1.98701E+03  8.744E-03  3.000E+00  1.909E+03  0.000E+00  0.000E+00
   2   35   55     4    11    3.5244E+02  9.7776E+01   2.5466E+02  0.000E+00  0.000E+00  0.000E+00  1.98201E+03  6.181E-03  3.000E+00  1.630E+03  1.025E+02 -4.691E+00
   2   36   55     4    12    2.5466E+02 -8.1946E+01   3.3661E+02  0.000E+00  0.000E+00  0.000E+00  1.97601E+03  5.349E-03  3.000E+00  6.750E+02  0.000E+00  0.000E+00
   2   35   37     5     1    4.3257E+03  0.0000E+00   4.3257E+03  0.000E+00  0.000E+00  0.000E+00  2.05402E+03  2.317E-02  3.000E+00  0.000E+00  0.000E+00  0.000E+00
   2   34   38     5     2    4.3257E+03  0.0000E+00   4.3257E+03  0.000E+00  0.000E+00  0.000E+00  2.04003E+03  2.853E-02  3.000E+00  0.000E+00  0.000E+00  0.000E+00
   2   33   39     5     3    4.3257E+03  0.0000E+00   4.3257E+03  0.000E+00  0.000E+00  0.000E+00  2.03203E+03  3.389E-02  3.000E+00  0.000E+00  0.000E+00  0.000E+00
   2   32   40     5     4    4.3257E+03  0.0000E+00   4.3257E+03  0.000E+00  0.000E+00  0.000E+00  2.03003E+03  3.349E-02  3.000E+00  0.000E+00  0.000E+00  0.000E+00
   2   32   41     5     5    4.3257E+03  0.0000E+00   4.3257E+03  0.000E+00  0.000E+00  0.000E+00  2.02603E+03  2.802E-02  3.000E+00  0.000E+00  0.000E+00  0.000E+00
   2   32   42     5     6    4.3257E+03  0.0000E+00   4.3257E+03  0.000E+00  0.000E+00  0.000E+00  2.02203E+03  3.294E-02  3.000E+00  0.000E+00  0.000E+00  0.000E+00
   2   32   43     5     7    4.3257E+03  0.0000E+00   4.3257E+03  0.000E+00  0.000E+00  0.000E+00  2.02004E+03  3.650E-02  3.000E+00  0.000E+00  0.000E+00  0.000E+00
   2   33   44     5     8    4.3257E+03  0.0000E+00   4.3257E+03  0.000E+00  0.000E+00  0.000E+00  2.01904E+03  3.655E-02  3.000E+00  0.000E+00  0.000E+00  0.000E+00
   2   34   47     6     1    5.1710E+03  4.5506E+00   5.1665E+03  0.000E+00  0.000E+00  0.000E+00  2.00702E+03  2.473E-02  3.000E+00  6.750E+02  0.000E+00  0.000E+00
   2   34   48     6     2    5.1665E+03 -1.2570E+02   5.2922E+03  0.000E+00  0.000E+00  0.000E+00  2.00103E+03  3.244E-02  3.000E+00  1.630E+03  0.000E+00  0.000E+00
   2   35   49     6     3    5.2922E+03 -2.5737E+02   5.5495E+03  0.000E+00  0.000E+00  0.000E+00  1.99403E+03  3.485E-02  3.000E+00  1.630E+03  0.000E+00  0.000E+00
   2   35   50     6     4    5.5495E+03 -1.8692E+02   5.7365E+03  0.000E+00  0.000E+00  0.000E+00  1.99004E+03  4.274E-02  3.000E+00  1.350E+03  0.000E+00  0.000E+00
   2   35   51     6     5    5.7365E+03  2.5191E+01   5.7113E+03  0.000E+00  0.000E+00  0.000E+00  1.98904E+03  4.318E-02  3.000E+00  1.630E+03  0.000E+00  0.000E+00
   2   36   52     6     6    5.7113E+03 -1.1409E+02   5.8254E+03  0.000E+00  0.000E+00  0.000E+00  1.98404E+03  3.842E-02  3.000E+00  1.630E+03  0.000E+00  0.000E+00
   2   36   53     6     7    5.8254E+03 -2.5189E+02   6.0772E+03  0.000E+00  0.000E+00  0.000E+00  1.98005E+03  4.992E-02  3.000E+00  1.630E+03  0.000E+00  0.000E+00
   2   37   54     6     8    6.0772E+03 -3.9376E+01   6.1166E+03  0.000E+00  0.000E+00  0.000E+00  1.98005E+03  5.312E-02  3.000E+00  1.909E+03  0.000E+00  0.000E+00
   2   36   55     6     9    6.1166E+03 -8.2246E+01   6.1989E+03  0.000E+00  0.000E+00  0.000E+00  1.97604E+03  4.059E-02  3.000E+00  9.546E+02  0.000E+00  0.000E+00
   2   36   34     7     1    1.6143E+03 -4.9837E+01   1.6641E+03  0.000E+00  0.000E+00  0.000E+00  2.07701E+03  1.176E-02  3.000E+00  9.546E+02  0.000E+00  0.000E+00
   2   35   35     7     2    1.6641E+03 -1.0634E+02   1.7705E+03  0.000E+00  0.000E+00  0.000E+00  2.06702E+03  1.593E-02  3.000E+00  1.630E+03  0.000E+00  0.000E+00
   2   35   36     7     3    1.7705E+03  2.9152E+01   1.7413E+03  0.000E+00  0.000E+00  0.000E+00  2.06202E+03  1.593E-02  3.000E+00  1.350E+03  0.000E+00  0.000E+00
   2   35   37     7     4    1.7413E+03 -6.1564E+01   1.8029E+03  0.000E+00  0.000E+00  0.000E+00  2.05401E+03  1.222E-02  3.000E+00  6.750E+02  0.000E+00  0.000E+00
   2   52   49     8     1    0.0000E+00 -1.9056E+02   1.9056E+02  0.000E+00  0.000E+00  0.000E+00  2.12100E+03  2.745E-03  3.000E+00  1.909E+03  0.000E+00  0.000E+00
   2   51   48     8     2    1.9056E+02 -2.3566E+02   4.2622E+02  0.000E+00  0.000E+00  0.000E+00  2.11701E+03  8.864E-03  3.000E+00  1.909E+03  0.000E+00  0.000E+00
   2   50   47     8     3    4.2622E+02  1.9210E+02   2.3412E+02  0.000E+00  0.000E+00  0.000E+00  2.11701E+03  7.153E-03  3.000E+00  1.630E+03  0.000E+00  0.000E+00
   2   49   47     8     4    2.3412E+02 -2.6034E+02   4.9446E+02  0.000E+00  0.000E+00  0.000E+00  2.10901E+03  7.096E-03  3.000E+00  1.630E+03  0.000E+00  0.000E+00
   2   48   46     8     5    4.9446E+02  1.8528E+01   4.7594E+02  0.000E+00  0.000E+00  0.000E+00  2.10701E+03  1.109E-02  3.000E+00  1.630E+03  0.000E+00  0.000E+00
   2   47   46     8     6    4.7594E+02  1.8270E+02   2.9323E+02  0.000E+00  0.000E+00  0.000E+00  2.10501E+03  9.120E-03  3.000E+00  1.350E+03  0.000E+00  0.000E+00
   2   46   46     8     7    2.9323E+02  8.1000E+01   2.1223E+02  0.000E+00  0.000E+00  0.000E+00  2.10301E+03  6.278E-03  3.000E+00  1.350E+03  8.418E+01 -3.178E+00
   2   45   46     8     8    2.1223E+02  8.1000E+01   1.3123E+02  0.000E+00  0.000E+00  0.000E+00  2.09900E+03  4.044E-03  3.000E+00  1.350E+03  3.842E+01  4.258E+01
   2   44   46     8     9    1.3123E+02  8.1000E+01   5.0234E+01  0.000E+00  0.000E+00  0.000E+00  2.09100E+03  2.403E-03  3.000E+00  1.350E+03  0.000E+00  8.100E+01
   2   43   46     8    10    5.0234E+01  5.0234E+01   0.0000E+00  0.000E+00  0.000E+00  0.000E+00  2.08000E+03  3.791E-04  3.000E+00  1.350E+03  0.000E+00  5.023E+01
   2   42   46     8    11    0.0000E+00  0.0000E+00   0.0000E+00  0.000E+00  0.000E+00  0.000E+00  2.07200E+03  0.000E+00  3.000E+00  1.630E+03  0.000E+00  0.000E+00
   2   41   45     8    12    0.0000E+00  0.0000E+00   0.0000E+00  0.000E+00  0.000E+00  0.000E+00  2.06000E+03  0.000E+00  3.000E+00  1.630E+03  0.000E+00  0.000E+00
   2   40   45     8    13    0.0000E+00  0.0000E+00   0.0000E+00  0.000E+00  0.000E+00  0.000E+00  2.05400E+03  0.000E+00  3.000E+00  1.350E+03  0.000E+00  0.000E+00
   2   39   45     8    14    0.0000E+00  0.0000E+00   0.0000E+00  0.000E+00  0.000E+00  0.000E+00  2.04600E+03  0.000E+00  3.000E+00  1.350E+03  0.000E+00  0.000E+00
   2   38   45     8    15    0.0000E+00  0.0000E+00   0.0000E+00  0.000E+00  0.000E+00  0.000E+00  2.03500E+03  0.000E+00  3.000E+00  1.350E+03  0.000E+00  0.000E+00
   2   37   45     8    16    0.0000E+00  0.0000E+00   0.0000E+00  0.000E+00  0.000E+00  0.000E+00  2.02700E+03  0.000E+00  3.000E+00  1.630E+03  0.000E+00  0.000E+00
   2   36   46     8    17    0.0000E+00  0.0000E+00   0.0000E+00  0.000E+00  0.000E+00  0.000E+00  2.02100E+03  0.000E+00  3.000E+00  1.630E+03  0.000E+00  0.000E+00
   2   35   46     8    18    0.0000E+00  0.0000E+00   0.0000E+00  0.000E+00  0.000E+00  0.000E+00  2.01400E+03  0.000E+00  3.000E+00  1.630E+03  0.000E+00  0.000E+00
   2   34   47     8    19    0.0000E+00 -1.6617E+01   1.6617E+01  0.000E+00  0.000E+00  0.000E+00  2.00700E+03  5.781E-04  3.000E+00  9.546E+02  0.000E+00  0.000E+00
   2   37   26     9     1    0.0000E+00  0.0000E+00   0.0000E+00  0.000E+00  0.000E+00  0.000E+00  2.14700E+03  0.000E+00  3.000E+00  1.350E+03  0.000E+00  0.000E+00
   2   37   27     9     2    0.0000E+00 -2.3415E+01   2.3415E+01  0.000E+00  0.000E+00  0.000E+00  2.13400E+03  6.730E-04  3.000E+00  1.350E+03  0.000E+00  0.000E+00
   2   37   28     9     3    2.3415E+01 -1.1869E+02   1.4211E+02  0.000E+00  0.000E+00  0.000E+00  2.12500E+03  2.406E-03  3.000E+00  1.630E+03  0.000E+00  0.000E+00
   2   36   29     9     4    1.4211E+02  1.0353E+02   3.8575E+01  0.000E+00  0.000E+00  0.000E+00  2.11500E+03  2.577E-03  3.000E+00  1.630E+03  0.000E+00  0.000E+00
   2   36   30     9     5    3.8575E+01 -6.1017E+01   9.9592E+01  0.000E+00  0.000E+00  0.000E+00  2.10700E+03  2.109E-03  3.000E+00  1.350E+03  0.000E+00  0.000E+00
   2   36   31     9     6    9.9592E+01 -1.8635E+02   2.8594E+02  0.000E+00  0.000E+00  0.000E+00  2.09800E+03  3.976E-03  3.000E+00  1.350E+03  0.000E+00  0.000E+00
   2   36   32     9     7    2.8594E+02 -1.3414E+02   4.2008E+02  0.000E+00  0.000E+00  0.000E+00  2.09101E+03  5.949E-03  3.000E+00  1.350E+03  0.000E+00  0.000E+00
   2   36   33     9     8    4.2008E+02 -1.3723E+02   5.5731E+02  0.000E+00  0.000E+00  0.000E+00  2.08401E+03  7.231E-03  3.000E+00  1.350E+03  0.000E+00  0.000E+00
   2   36   34     9     9    5.5731E+02 -3.9049E+01   5.9636E+02  0.000E+00  0.000E+00  0.000E+00  2.07701E+03  6.121E-03  3.000E+00  6.750E+02  0.000E+00  0.000E+00
   2   58   37    10     1    0.0000E+00  0.0000E+00   0.0000E+00  0.000E+00  0.000E+00  0.000E+00  2.15000E+03  0.000E+00  3.000E+00  1.350E+03  0.000E+00  0.000E+00
   2   57   37    10     2    0.0000E+00 -6.7503E+01   6.7503E+01  0.000E+00  0.000E+00  0.000E+00  2.14700E+03  1.895E-03  3.000E+00  1.630E+03  0.000E+00  0.000E+00
   2   56   38    10     3    6.7503E+01  2.2767E+01   4.4736E+01  0.000E+00  0.000E+00  0.000E+00  2.14300E+03  2.384E-03  3.000E+00  1.630E+03  0.000E+00  0.000E+00
   2   55   38    10     4    4.4736E+01 -1.7419E+02   2.1893E+02  0.000E+00  0.000E+00  0.000E+00  2.13800E+03  3.897E-03  3.000E+00  1.350E+03  0.000E+00  0.000E+00
   2   54   38    10     5    2.1893E+02 -1.1542E+02   3.3434E+02  0.000E+00  0.000E+00  0.000E+00  2.13501E+03  6.627E-03  3.000E+00  1.350E+03  0.000E+00  0.000E+00
   2   53   38    10     6    3.3434E+02 -1.0754E+02   4.4189E+02  0.000E+00  0.000E+00  0.000E+00  2.13201E+03  8.120E-03  3.000E+00  1.350E+03  0.000E+00  0.000E+00
   2   52   38    10     7    4.4189E+02 -1.6443E+02   6.0632E+02  0.000E+00  0.000E+00  0.000E+00  2.12901E+03  1.162E-02  3.000E+00  1.630E+03  0.000E+00  0.000E+00
   2   51   39    10     8    6.0632E+02  1.6396E+01   5.8992E+02  0.000E+00  0.000E+00  0.000E+00  2.12801E+03  1.258E-02  3.000E+00  1.630E+03  0.000E+00  0.000E+00
   2   50   39    10     9    5.8992E+02 -8.5102E+01   6.7502E+02  0.000E+00  0.000E+00  0.000E+00  2.12501E+03  1.100E-02  3.000E+00  1.630E+03  0.000E+00  0.000E+00
   2   49   38    10    10    6.7502E+02 -1.5544E+02   8.3046E+02  0.000E+00  0.000E+00  0.000E+00  2.12101E+03  1.280E-02  3.000E+00  1.909E+03  0.000E+00  0.000E+00
   2   48   37    10    11    8.3046E+02  1.9661E+01   8.1080E+02  0.000E+00  0.000E+00  0.000E+00  2.11801E+03  1.147E-02  3.000E+00  1.909E+03  0.000E+00  0.000E+00
   2   47   36    10    12    8.1080E+02 -3.3999E+02   1.1508E+03  0.000E+00  0.000E+00  0.000E+00  2.10901E+03  1.217E-02  3.000E+00  1.630E+03  0.000E+00  0.000E+00
   2   46   36    10    13    1.1508E+03 -1.3391E+02   1.2847E+03  0.000E+00  0.000E+00  0.000E+00  2.10602E+03  1.540E-02  3.000E+00  1.350E+03  0.000E+00  0.000E+00
   2   45   36    10    14    1.2847E+03 -1.6869E+02   1.4534E+03  0.000E+00  0.000E+00  0.000E+00  2.10202E+03  1.652E-02  3.000E+00  1.350E+03  0.000E+00  0.000E+00
   2   44   36    10    15    1.4534E+03 -9.9163E+01   1.5526E+03  0.000E+00  0.000E+00  0.000E+00  2.09902E+03  1.830E-02  3.000E+00  1.350E+03  0.000E+00  0.000E+00
   2   43   36    10    16    1.5526E+03 -1.9461E+01   1.5720E+03  0.000E+00  0.000E+00  0.000E+00  2.09602E+03  1.754E-02  3.000E+00  1.630E+03  0.000E+00  0.000E+00
   2   42   37    10    17    1.5720E+03  1.7809E+02   1.3939E+03  0.000E+00  0.000E+00  0.000E+00  2.09001E+03  1.431E-02  3.000E+00  1.630E+03  0.000E+00  0.000E+00
   2   41   37    10    18    1.3939E+03 -2.6326E+02   1.6572E+03  0.000E+00  0.000E+00  0.000E+00  2.08001E+03  1.375E-02  3.000E+00  1.350E+03  0.000E+00  0.000E+00
   2   40   37    10    19    1.6572E+03 -3.2523E+02   1.9824E+03  0.000E+00  0.000E+00  0.000E+00  2.07402E+03  1.923E-02  3.000E+00  1.630E+03  0.000E+00  0.000E+00
   2   39   38    10    20    1.9824E+03 -2.8269E+01   2.0107E+03  0.000E+00  0.000E+00  0.000E+00  2.07102E+03  2.192E-02  3.000E+00  1.630E+03  0.000E+00  0.000E+00
   2   38   38    10    21    2.0107E+03  2.6440E+01   1.9842E+03  0.000E+00  0.000E+00  0.000E+00  2.06702E+03  1.970E-02  3.000E+00  1.630E+03  0.000E+00  0.000E+00
   2   37   37    10    22    1.9842E+03 -2.8501E+02   2.2693E+03  0.000E+00  0.000E+00  0.000E+00  2.06102E+03  2.045E-02  3.000E+00  1.630E+03  0.000E+00  0.000E+00
   2   36   37    10    23    2.2693E+03 -1.9504E+02   2.4643E+03  0.000E+00  0.000E+00  0.000E+00  2.05702E+03  2.294E-02  3.000E+00  1.350E+03  0.000E+00  0.000E+00
   2   35   37    10    24    2.4643E+03 -5.8482E+01   2.5228E+03  0.000E+00  0.000E+00  0.000E+00  2.05402E+03  1.679E-02  3.000E+00  6.750E+02  0.000E+00  0.000E+00
   2   36   55    11     1    6.5355E+03 -6.2356E+01   6.5978E+03  0.000E+00  0.000E+00  0.000E+00  1.97603E+03  3.437E-02  3.000E+00  6.750E+02  0.000E+00  0.000E+00
   2   36   56    11     2    6.5978E+03 -1.0686E+02   6.7047E+03  0.000E+00  0.000E+00  0.000E+00  1.97506E+03  5.818E-02  3.000E+00  1.630E+03  0.000E+00  0.000E+00
   2   37   57    11     3    6.7047E+03 -1.1204E+02   6.8167E+03  0.000E+00  0.000E+00  0.000E+00  1.97306E+03  5.875E-02  3.000E+00  1.630E+03  0.000E+00  0.000E+00
   2   37   58    11     4    6.8167E+03 -6.5573E+01   6.8823E+03  0.000E+00  0.000E+00  0.000E+00  1.97208E+03  7.781E-02  3.000E+00  1.350E+03  0.000E+00  0.000E+00
   2   37   59    11     5    6.8823E+03  5.9707E+01   6.8226E+03  0.000E+00  0.000E+00  0.000E+00  1.97206E+03  6.322E-02  3.000E+00  1.350E+03  0.000E+00  0.000E+00
   2   37   60    11     6    6.8226E+03 -3.6382E+01   6.8590E+03  0.000E+00  0.000E+00  0.000E+00  1.97005E+03  5.076E-02  3.000E+00  1.630E+03  0.000E+00  0.000E+00
   2   38   61    11     7    6.8590E+03 -1.4524E+02   7.0042E+03  0.000E+00  0.000E+00  0.000E+00  1.96705E+03  4.625E-02  3.000E+00  1.630E+03  0.000E+00  0.000E+00
   2   38   62    11     8    7.0042E+03 -1.0226E+02   7.1065E+03  0.000E+00  0.000E+00  0.000E+00  1.96304E+03  4.244E-02  3.000E+00  6.750E+02  0.000E+00  0.000E+00
   2   51   11    12     1    0.0000E+00 -3.6713E+02   3.6713E+02  0.000E+00  0.000E+00  0.000E+00  2.38700E+03  3.893E-03  3.000E+00  1.909E+03  0.000E+00  0.000E+00
   2   50   12    12     2    3.6713E+02 -5.3812E+01   4.2094E+02  0.000E+00  0.000E+00  0.000E+00  2.37501E+03  5.872E-03  3.000E+00  1.630E+03  0.000E+00  0.000E+00
   2   49   12    12     3    4.2094E+02 -3.7172E+02   7.9265E+02  0.000E+00  0.000E+00  0.000E+00  2.36501E+03  7.950E-03  3.000E+00  1.630E+03  0.000E+00  0.000E+00
   2   48   13    12     4    7.9265E+02 -1.5820E+02   9.5085E+02  0.000E+00  0.000E+00  0.000E+00  2.35601E+03  1.061E-02  3.000E+00  1.630E+03  0.000E+00  0.000E+00
   2   48   14    12     5    9.5085E+02 -1.6259E+02   1.1134E+03  0.000E+00  0.000E+00  0.000E+00  2.35001E+03  1.151E-02  3.000E+00  1.630E+03  0.000E+00  0.000E+00
   2   47   15    12     6    1.1134E+03 -1.5215E+02   1.2656E+03  0.000E+00  0.000E+00  0.000E+00  2.34001E+03  1.278E-02  3.000E+00  1.630E+03  0.000E+00  0.000E+00
   2   47   16    12     7    1.2656E+03 -1.3551E+02   1.4011E+03  0.000E+00  0.000E+00  0.000E+00  2.33502E+03  1.502E-02  3.000E+00  1.630E+03  0.000E+00  0.000E+00
   2   46   17    12     8    1.4011E+03  7.3191E+01   1.3279E+03  0.000E+00  0.000E+00  0.000E+00  2.32901E+03  1.417E-02  3.000E+00  1.630E+03  0.000E+00  0.000E+00
   2   46   18    12     9    1.3279E+03  1.5636E+02   1.1716E+03  0.000E+00  0.000E+00  0.000E+00  2.32101E+03  1.094E-02  3.000E+00  1.350E+03  0.000E+00  0.000E+00
   2   46   19    12    10    1.1716E+03 -4.4742E+02   1.6190E+03  0.000E+00  0.000E+00  0.000E+00  2.30601E+03  1.329E-02  3.000E+00  1.350E+03  0.000E+00  0.000E+00
   2   46   20    12    11    1.6190E+03  7.5806E+02   8.6092E+02  0.000E+00  0.000E+00  0.000E+00  2.30601E+03  1.044E-02  3.000E+00  1.630E+03  0.000E+00  0.000E+00
   2   45   21    12    12    8.6092E+02 -3.1360E+02   1.1745E+03  0.000E+00  0.000E+00  0.000E+00  2.27401E+03  8.221E-03  3.000E+00  1.909E+03  0.000E+00  0.000E+00
   2   44   22    12    13    1.1745E+03 -1.7029E+02   1.3448E+03  0.000E+00  0.000E+00  0.000E+00  2.25001E+03  1.011E-02  3.000E+00  1.909E+03  0.000E+00  0.000E+00
   2   43   23    12    14    1.3448E+03  1.4922E+02   1.1956E+03  0.000E+00  0.000E+00  0.000E+00  2.23101E+03  1.024E-02  3.000E+00  1.909E+03  0.000E+00  0.000E+00
   2   42   24    12    15    1.1956E+03 -7.3458E+01   1.2691E+03  0.000E+00  0.000E+00  0.000E+00  2.20801E+03  1.050E-02  3.000E+00  1.630E+03  0.000E+00  0.000E+00
   2   42   25    12    16    1.2691E+03 -1.0994E+01   1.2800E+03  0.000E+00  0.000E+00  0.000E+00  2.20001E+03  1.155E-02  3.000E+00  1.350E+03  0.000E+00  0.000E+00
   2   42   26    12    17    1.2800E+03  1.2759E+02   1.1525E+03  0.000E+00  0.000E+00  0.000E+00  2.18801E+03  9.943E-03  3.000E+00  1.350E+03  0.000E+00  0.000E+00
   2   42   27    12    18    1.1525E+03 -2.5903E+02   1.4115E+03  0.000E+00  0.000E+00  0.000E+00  2.17001E+03  1.037E-02  3.000E+00  1.350E+03  0.000E+00  0.000E+00
   2   42   28    12    19    1.4115E+03 -8.9277E+01   1.5008E+03  0.000E+00  0.000E+00  0.000E+00  2.15901E+03  1.197E-02  3.000E+00  1.630E+03  0.000E+00  0.000E+00
   2   41   29    12    20    1.5008E+03  1.5459E+02   1.3462E+03  0.000E+00  0.000E+00  0.000E+00  2.14201E+03  1.189E-02  3.000E+00  1.909E+03  0.000E+00  0.000E+00
   2   40   30    12    21    1.3462E+03  8.0784E+01   1.2654E+03  0.000E+00  0.000E+00  0.000E+00  2.12701E+03  1.188E-02  3.000E+00  1.909E+03  0.000E+00  0.000E+00
   2   39   31    12    22    1.2654E+03  1.1455E+02   1.1508E+03  0.000E+00  0.000E+00  0.000E+00  2.11501E+03  1.175E-02  3.000E+00  1.909E+03  1.150E+02 -4.045E-01
   2   38   32    12    23    1.1508E+03  1.1455E+02   1.0363E+03  0.000E+00  0.000E+00  0.000E+00  2.10301E+03  1.080E-02  3.000E+00  1.909E+03  1.203E+02 -5.759E+00
   2   37   33    12    24    1.0363E+03  7.1079E+01   9.6520E+02  0.000E+00  0.000E+00  0.000E+00  2.08901E+03  1.024E-02  3.000E+00  1.909E+03  0.000E+00  0.000E+00
   2   36   34    12    25    9.6520E+02 -5.2761E+01   1.0180E+03  0.000E+00  0.000E+00  0.000E+00  2.07701E+03  8.701E-03  3.000E+00  9.546E+02  0.000E+00  0.000E+00
   2   38   62    13     1    7.2891E+03 -1.0862E+02   7.3977E+03  0.000E+00  0.000E+00  0.000E+00  1.96303E+03  3.303E-02  3.000E+00  6.750E+02  0.000E+00  0.000E+00
   2   38   63    13     2    7.3977E+03 -7.2235E+00   7.4049E+03  0.000E+00  0.000E+00  0.000E+00  1.96516E+03  2.161E+00  3.000E+00  1.350E+03  0.000E+00  0.000E+00
   2   38   64    13     3    7.4049E+03  2.7054E+01   7.3779E+03  0.000E+00  0.000E+00  0.000E+00  1.96516E+03  2.159E+00  3.000E+00  1.350E+03  0.000E+00  0.000E+00
   2   38   65    13     4    7.3779E+03 -1.0705E+01   7.3886E+03  0.000E+00  0.000E+00  0.000E+00  1.96306E+03  5.854E-02  3.000E+00  6.750E+02  0.000E+00  0.000E+00
   2   46   61    14     1    0.0000E+00  0.0000E+00   0.0000E+00  0.000E+00  0.000E+00  0.000E+00  2.01700E+03  0.000E+00  3.000E+00  1.350E+03  0.000E+00  0.000E+00
   2   45   61    14     2    0.0000E+00  0.0000E+00   0.0000E+00  0.000E+00  0.000E+00  0.000E+00  2.01000E+03  0.000E+00  3.000E+00  1.350E+03  0.000E+00  0.000E+00
   2   44   61    14     3    0.0000E+00  0.0000E+00   0.0000E+00  0.000E+00  0.000E+00  0.000E+00  2.00600E+03  0.000E+00  3.000E+00  1.350E+03  0.000E+00  0.000E+00
   2   43   61    14     4    0.0000E+00  0.0000E+00   0.0000E+00  0.000E+00  0.000E+00  0.000E+00  1.99900E+03  0.000E+00  3.000E+00  1.350E+03  0.000E+00  0.000E+00
   2   42   61    14     5    0.0000E+00  0.0000E+00   0.0000E+00  0.000E+00  0.000E+00  0.000E+00  1.99300E+03  0.000E+00  3.000E+00  1.350E+03  0.000E+00  0.000E+00
   2   41   61    14     6    0.0000E+00  0.0000E+00   0.0000E+00  0.000E+00  0.000E+00  0.000E+00  1.98500E+03  0.000E+00  3.000E+00  1.350E+03  0.000E+00  0.000E+00
   2   40   61    14     7    0.0000E+00  0.0000E+00   0.0000E+00  0.000E+00  0.000E+00  0.000E+00  1.97800E+03  0.000E+00  3.000E+00  1.350E+03  0.000E+00  0.000E+00
   2   39   61    14     8    0.0000E+00  0.0000E+00   0.0000E+00  0.000E+00  0.000E+00  0.000E+00  1.97300E+03  0.000E+00  3.000E+00  1.630E+03  0.000E+00  0.000E+00
   2   38   62    14     9    0.0000E+00 -1.8262E+02   1.8262E+02  0.000E+00  0.000E+00  0.000E+00  1.96300E+03  2.635E-03  3.000E+00  9.546E+02  0.000E+00  0.000E+00
   2   39   70    15     1    7.6830E+03  2.1026E+00   7.6809E+03  0.000E+00  0.000E+00  0.000E+00  1.94603E+03  3.298E-02  3.000E+00  6.750E+02  0.000E+00  0.000E+00
   2   40   75    16     1    1.5000E+04 -2.7855E+01   1.5028E+04  0.000E+00  0.000E+00  0.000E+00  1.93406E+03  6.245E-02  3.000E+00  6.750E+02  0.000E+00  0.000E+00
   2   40   76    16     2    1.5028E+04  0.0000E+00   1.5028E+04  0.000E+00  0.000E+00  0.000E+00  1.93309E+03  8.967E-02  3.000E+00  0.000E+00  0.000E+00  0.000E+00
   2   55   73    17     1    0.0000E+00  0.0000E+00   0.0000E+00  0.000E+00  0.000E+00  0.000E+00  2.04100E+03  0.000E+00  3.000E+00  1.350E+03  0.000E+00  0.000E+00
   2   54   73    17     2    0.0000E+00  0.0000E+00   0.0000E+00  0.000E+00  0.000E+00  0.000E+00  2.02900E+03  0.000E+00  3.000E+00  1.350E+03  0.000E+00  0.000E+00
   2   53   73    17     3    0.0000E+00  0.0000E+00   0.0000E+00  0.000E+00  0.000E+00  0.000E+00  2.01700E+03  0.000E+00  3.000E+00  1.350E+03  0.000E+00  0.000E+00
   2   52   73    17     4    0.0000E+00  0.0000E+00   0.0000E+00  0.000E+00  0.000E+00  0.000E+00  2.01000E+03  0.000E+00  3.000E+00  1.630E+03  0.000E+00  0.000E+00
   2   51   72    17     5    0.0000E+00  0.0000E+00   0.0000E+00  0.000E+00  0.000E+00  0.000E+00  1.99800E+03  0.000E+00  3.000E+00  1.630E+03  0.000E+00  0.000E+00
   2   50   72    17     6    0.0000E+00 -4.9623E+01   4.9623E+01  0.000E+00  0.000E+00  0.000E+00  1.97500E+03  1.267E-03  3.000E+00  1.350E+03  0.000E+00  0.000E+00
   2   49   72    17     7    4.9623E+01  0.0000E+00   4.9623E+01  0.000E+00  0.000E+00  0.000E+00  1.95600E+03  1.838E-03  3.000E+00  0.000E+00  0.000E+00  0.000E+00
   2   48   72    17     8    4.9623E+01  0.0000E+00   4.9623E+01  0.000E+00  0.000E+00  0.000E+00  1.95200E+03  1.836E-03  3.000E+00  0.000E+00  0.000E+00  0.000E+00
   2   47   72    17     9    4.9623E+01  0.0000E+00   4.9623E+01  0.000E+00  0.000E+00  0.000E+00  1.95000E+03  1.864E-03  3.000E+00  0.000E+00  0.000E+00  0.000E+00
   2   46   72    17    10    4.9623E+01  0.0000E+00   4.9623E+01  0.000E+00  0.000E+00  0.000E+00  1.94800E+03  1.927E-03  3.000E+00  0.000E+00  0.000E+00  0.000E+00
   2   45   72    17    11    4.9623E+01  0.0000E+00   4.9623E+01  0.000E+00  0.000E+00  0.000E+00  1.94400E+03  1.944E-03  3.000E+00  0.000E+00  0.000E+00  0.000E+00
   2   44   73    17    12    4.9623E+01  0.0000E+00   4.9623E+01  0.000E+00  0.000E+00  0.000E+00  1.94200E+03  1.983E-03  3.000E+00  0.000E+00  0.000E+00  0.000E+00
   2   43   73    17    13    4.9623E+01  0.0000E+00   4.9623E+01  0.000E+00  0.000E+00  0.000E+00  1.94200E+03  2.173E-03  3.000E+00  0.000E+00  0.000E+00  0.000E+00
   2   42   73    17    14    4.9623E+01  0.0000E+00   4.9623E+01  0.000E+00  0.000E+00  0.000E+00  1.94100E+03  2.221E-03  3.000E+00  0.000E+00  0.000E+00  0.000E+00
   2   34   45    18     1    5.0640E+03 -2.6240E+01   5.0902E+03  0.000E+00  0.000E+00  0.000E+00  2.01794E+03  3.686E-02  3.000E+00  1.630E+03  0.000E+00  0.000E+00
   2   34   46    18     2    5.0902E+03 -7.0042E+01   5.1603E+03  0.000E+00  0.000E+00  0.000E+00  2.01103E+03  3.382E-02  3.000E+00  1.350E+03  0.000E+00  0.000E+00
   2   34   47    18     3    5.1603E+03  5.8935E+00   5.1544E+03  0.000E+00  0.000E+00  0.000E+00  2.00703E+03  2.672E-02  3.000E+00  6.750E+02  0.000E+00  0.000E+00
   2   41   74    19     1    1.0503E+04 -2.2542E+02   1.0729E+04  0.000E+00  0.000E+00  0.000E+00  1.93806E+03  5.628E-02  3.000E+00  1.909E+03  0.000E+00  0.000E+00
   2   40   75    19     2    1.0729E+04 -4.4871E+01   1.0773E+04  0.000E+00  0.000E+00  0.000E+00  1.93406E+03  5.671E-02  3.000E+00  9.546E+02  0.000E+00  0.000E+00
   2   39   66    20     1    0.0000E+00  0.0000E+00   0.0000E+00  0.000E+00  0.000E+00  0.000E+00  1.96250E+03  0.000E+00  1.500E+00  8.148E+02  0.000E+00  0.000E+00
   2   39   67    20     2    0.0000E+00  0.0000E+00   0.0000E+00  0.000E+00  0.000E+00  0.000E+00  1.96225E+03  0.000E+00  1.500E+00  6.750E+02  0.000E+00  0.000E+00
   2   40   68    20     3    0.0000E+00  0.0000E+00   0.0000E+00  0.000E+00  0.000E+00  0.000E+00  1.96200E+03  0.000E+00  1.500E+00  9.546E+02  0.000E+00  0.000E+00
   2   41   69    20     4    0.0000E+00  0.0000E+00   0.0000E+00  0.000E+00  0.000E+00  0.000E+00  1.96175E+03  0.000E+00  1.500E+00  8.148E+02  0.000E+00  0.000E+00
   2   42   69    20     5    0.0000E+00  0.0000E+00   0.0000E+00  0.000E+00  0.000E+00  0.000E+00  1.96150E+03  0.000E+00  1.500E+00  8.148E+02  0.000E+00  0.000E+00
   2   43   70    20     6    0.0000E+00  0.0000E+00   0.0000E+00  0.000E+00  0.000E+00  0.000E+00  1.96125E+03  0.000E+00  1.500E+00  8.148E+02  0.000E+00  0.000E+00
   2   38   66    21     1    7.3886E+03 -7.0458E+01   7.4590E+03  0.000E+00  0.000E+00  0.000E+00  1.96005E+03  5.039E-02  3.000E+00  1.350E+03  0.000E+00  0.000E+00
   2   38   67    21     2    7.4590E+03  1.7022E+01   7.4420E+03  0.000E+00  0.000E+00  0.000E+00  1.95805E+03  4.830E-02  3.000E+00  1.630E+03  0.000E+00  0.000E+00
   2   39   68    21     3    7.4420E+03 -1.0801E+01   7.4528E+03  0.000E+00  0.000E+00  0.000E+00  1.95304E+03  4.339E-02  3.000E+00  1.630E+03  0.000E+00  0.000E+00
   2   39   69    21     4    7.4528E+03 -2.0903E+02   7.6619E+03  0.000E+00  0.000E+00  0.000E+00  1.94805E+03  4.604E-02  3.000E+00  1.350E+03  0.000E+00  0.000E+00
   2   39   70    21     5    7.6619E+03  6.4926E+00   7.6554E+03  0.000E+00  0.000E+00  0.000E+00  1.94604E+03  3.948E-02  3.000E+00  6.750E+02  0.000E+00  0.000E+00
   2   38   71    22     1    4.0000E+03 -5.2859E+01   4.0529E+03  0.000E+00  0.000E+00  0.000E+00  1.94556E+03  5.986E-02  3.000E+00  3.259E+02  0.000E+00  0.000E+00
   2   38   72    22     2    4.0529E+03 -3.7148E+01   4.0900E+03  0.000E+00  0.000E+00  0.000E+00  1.94506E+03  6.026E-02  3.000E+00  3.259E+02  0.000E+00  0.000E+00
   2   39   73    22     3    4.0900E+03  1.2980E+02   3.9602E+03  0.000E+00  0.000E+00  0.000E+00  1.94456E+03  5.984E-02  3.000E+00  3.259E+02  0.000E+00  0.000E+00
   2   39   74    22     4    3.9602E+03  8.1000E+01   3.8792E+03  0.000E+00  0.000E+00  0.000E+00  1.94406E+03  5.567E-02  3.000E+00  2.700E+02  8.561E+01 -4.610E+00
   2   39   75    22     5    3.8792E+03  8.1000E+01   3.7982E+03  0.000E+00  0.000E+00  0.000E+00  1.94355E+03  5.497E-02  3.000E+00  2.700E+02  8.512E+01 -4.122E+00
   2   39   76    22     6    3.7982E+03  0.0000E+00   3.7982E+03  0.000E+00  0.000E+00  0.000E+00  1.94305E+03  5.462E-02  3.000E+00  0.000E+00  0.000E+00  0.000E+00
   2   39   71    23     1    3.6809E+03 -1.8379E+02   3.8647E+03  0.000E+00  0.000E+00  0.000E+00  1.94204E+03  3.552E-02  3.000E+00  1.630E+03  0.000E+00  0.000E+00
   2   40   72    23     2    3.8647E+03 -7.1804E+01   3.9365E+03  0.000E+00  0.000E+00  0.000E+00  1.94104E+03  3.875E-02  3.000E+00  1.630E+03  0.000E+00  0.000E+00
   2   40   73    23     3    3.9365E+03 -1.7646E+02   4.1129E+03  0.000E+00  0.000E+00  0.000E+00  1.93803E+03  3.490E-02  3.000E+00  1.350E+03  0.000E+00  0.000E+00
   2   40   74    23     4    4.1129E+03 -6.6443E+01   4.1794E+03  0.000E+00  0.000E+00  0.000E+00  1.93604E+03  3.798E-02  3.000E+00  1.350E+03  0.000E+00  0.000E+00
   2   40   75    23     5    4.1794E+03 -4.7119E+01   4.2265E+03  0.000E+00  0.000E+00  0.000E+00  1.93403E+03  3.391E-02  3.000E+00  6.750E+02  0.000E+00  0.000E+00



1
  VOLUMETRIC BUDGET FOR UNSATURATED ZONE BENEATH STREAMS AT END OF TIME STEP     4 STRESS PERIOD   2
  ------------------------------------------------------------------------------------------------

    CUMULATIVE VOLUMES             L**3    RATES FOR THIS TIME STEP         L**3/T
    ------------------                     ------------------------


          STREAM LOSS =         3473.2996            STREAM LOSS =          833.9407
    CHANGE IN STORAGE =          921.4260      CHANGE IN STORAGE =          149.8200
       RECHARGE TO GW =         2551.8740         RECHARGE TO GW =          684.1208

             TOTAL IN =         3473.2996               TOTAL IN =          833.9407

            TOTAL OUT =         3473.3000              TOTAL OUT =          833.9408

             IN - OUT =       -4.8828E-04               IN - OUT =       -1.2207E-04

  PERCENT DISCREPANCY =           -0.00      PERCENT DISCREPANCY =            -0.00



 ***WARNING***NUZTOP IS 3 AND ALL LAYERS  IN ROW           39  AND COLUMN 
          76  ARE INACTIVE.
 UNSATURATED FLOW WILL NOT BE ADDED TO ANY LAYER-- SOME WATER MAY FLOW PAST
  LOWEST LAYER
 ***WARNING***NUZTOP IS 3 AND ALL LAYERS  IN ROW           40  AND COLUMN 
          76  ARE INACTIVE.
 UNSATURATED FLOW WILL NOT BE ADDED TO ANY LAYER-- SOME WATER MAY FLOW PAST
  LOWEST LAYER


UNSATURATED ZONE PACKAGE VOLUMETRIC BUDGET FOR  TIME STEP     4 STRESS PERIOD    2
  ------------------------------------------------------------------------------



     CUMULATIVE VOLUMES      L**3       RATES FOR THIS TIME STEP      L**3/T
     ------------------                 ------------------------

           IN:                                      IN:
           ---                                      ---
        INFILTRATION =       26039.6903          INFILTRATION =       0.0000E+00

          OUT:                                     OUT:
          ----                                     ----
              UZF ET =      109210.2731                UZF ET =       25739.4786
        UZF RECHARGE =      145979.6252          UZF RECHARGE =       28006.4022

            IN - OUT =     -229150.2080              IN - OUT =      -53745.8808

          STORAGE:                                 STORAGE:
          --------                                 --------
      STORAGE CHANGE =     -228446.9970        STORAGE CHANGE =      -53641.3088

 PERCENT DISCREPANCY IS DIFFERENCE BETWEEN IN-OUT MINUS CHANGE IN STORAGE
 DIVIDED BY THE AVERAGE OF IN AND OUT TIMES 100

 PERCENT DISCREPANCY =          -0.07     PERCENT DISCREPANCY =          -0.19






1
  VOLUMETRIC BUDGET FOR ENTIRE MODEL AT END OF TIME STEP    4, STRESS PERIOD   2
  ------------------------------------------------------------------------------

     CUMULATIVE VOLUMES      L**3       RATES FOR THIS TIME STEP      L**3/T
     ------------------                 ------------------------

           IN:                                      IN:
           ---                                      ---
             STORAGE     =         429.5963               STORAGE     =         172.6574
       CONSTANT HEAD     =          17.2393         CONSTANT HEAD     =           0.9254
      STREAM LEAKAGE     =       20916.3008        STREAM LEAKAGE     =        3931.8030
       LAKE  SEEPAGE     =        1636.7253         LAKE  SEEPAGE     =         303.5182
        UZF RECHARGE     =      145993.0625          UZF RECHARGE     =       28006.4297
               GW ET     =           0.0000                 GW ET     =           0.0000
     SURFACE LEAKAGE     =           0.0000       SURFACE LEAKAGE     =           0.0000

                TOTAL IN =      168992.9062                  TOTAL IN =       32415.3340

          OUT:                                     OUT:
          ----                                     ----
             STORAGE     =       70637.4375               STORAGE     =       15137.2441
       CONSTANT HEAD     =         312.3992         CONSTANT HEAD     =          62.9914
      STREAM LEAKAGE     =       53404.3984        STREAM LEAKAGE     =       11715.8770
       LAKE  SEEPAGE     =       13187.2207         LAKE  SEEPAGE     =        2635.9971
        UZF RECHARGE     =           0.0000          UZF RECHARGE     =           0.0000
               GW ET     =       30482.7070                 GW ET     =        2628.4050
     SURFACE LEAKAGE     =        1239.8273       SURFACE LEAKAGE     =         305.3156

               TOTAL OUT =      169264.0000                 TOTAL OUT =       32485.8301

                IN - OUT =        -271.0938                  IN - OUT =         -70.4961

     PERCENT DISCREPANCY =          -0.16         PERCENT DISCREPANCY =          -0.22






         TIME SUMMARY AT END OF TIME STEP    4 IN STRESS PERIOD    2
                    SECONDS     MINUTES      HOURS       DAYS        YEARS
                    -----------------------------------------------------------
   TIME STEP LENGTH  86400.      1440.0      24.000      1.0000     2.73785E-03
 STRESS PERIOD TIME 3.45600E+05  5760.0      96.000      4.0000     1.09514E-02
         TOTAL TIME 4.32000E+05  7200.0      120.00      5.0000     1.36893E-02
1
                                                   Max.-Head-Change                         Max.-Flux-Residual
  Residual-Control   Outer-Iter.   Inner-Iter.     Column Row Layer    Maximum-Head-Change  Column Row Layer    Maximum-Flux-Residual          L2-NORM 
          0                 1           4            61   52     2       0.1646174759E+01      67   25    2         0.2140466755E+03      0.5688279334E+03
          0                 2           4            57    9     2       0.1051096810E+01      68   26    2         0.1477395420E+03      0.2049918557E+03
          0                 3           3             4   57     2       0.1225776275E+00       4   57    2         0.1114734698E+03      0.1167042148E+03
          0                 4           2             4   57     2       0.3291845977E-01       4   57    2         0.2949565830E+02      0.3064713640E+02
          0                 5           2             4   57     2       0.8557368115E-02       4   57    2         0.7667109981E+01      0.8103701236E+01
          0                 6           2             4   57     2       0.2226065348E-02       4   57    2         0.1993568801E+01      0.2201167554E+01
          0                 7           1             4   57     2       0.5794735283E-03       4   57    2         0.5184301122E+00      0.6284075049E+00
          0                 8           1             4   57     2       0.1509683495E-03       4   57    2         0.1348038807E+00      0.1970319057E+00
          0                 9           1             4   59     2       0.4754174348E-04       4   57    2         0.3505498553E-01      0.7158388166E-01

    ------------------------------------------------
       NWT REQUIRED            9 OUTER ITERATIONS 
       AND A TOTAL OF         20 INNER ITERATIONS.
    ------------------------------------------------
                                                   Max.-Head-Change                         Max.-Flux-Residual
  Residual-Control   Outer-Iter.   Inner-Iter.     Column Row Layer    Maximum-Head-Change  Column Row Layer    Maximum-Flux-Residual          L2-NORM 
          0                 1           2            63   38     2       0.1878052252E-01      63   38    2         0.2426019605E+02      0.3118553315E+02
          0                 2           2            64   38     2       0.5747385052E-02      64   38    2         0.7451540062E+01      0.8424926218E+01
          0                 3           2            49   23     2       0.1681867815E-02      64   38    2         0.6738698132E+00      0.8771255374E+00
          0                 4           1            49   23     2       0.1693644539E-03      63   38    2         0.6215606137E-01      0.1416434688E+00
          0                 5           1            50   53     3       0.2398664179E-04      63   38    2         0.3794381629E-01      0.6763834552E-01

    ------------------------------------------------
       NWT REQUIRED            5 OUTER ITERATIONS 
       AND A TOTAL OF          8 INNER ITERATIONS.
    ------------------------------------------------
                                                   Max.-Head-Change                         Max.-Flux-Residual
  Residual-Control   Outer-Iter.   Inner-Iter.     Column Row Layer    Maximum-Head-Change  Column Row Layer    Maximum-Flux-Residual          L2-NORM 
          0                 1           1            49   23     2      -0.9819464738E-03      63   38    2         0.6333717508E-01      0.1494383648E+00
          0                 2           1            49   23     2      -0.8842228503E-03      63   38    2        -0.5839621892E-01      0.1542961227E+00
          0                 3           2            49   23     2       0.1678544756E-02      63   38    2        -0.4945274208E-01      0.2721003505E+00
          0                 4           1            49   23     2       0.1685858045E-03      63   38    2         0.8479832216E-01      0.1278344068E+00
          0                 5           1            63   38     2       0.2418233649E-04      63   38    2         0.4627101574E-01      0.8127590723E-01

    ------------------------------------------------
       NWT REQUIRED            5 OUTER ITERATIONS 
       AND A TOTAL OF          6 INNER ITERATIONS.
    ------------------------------------------------
                                                   Max.-Head-Change                         Max.-Flux-Residual
  Residual-Control   Outer-Iter.   Inner-Iter.     Column Row Layer    Maximum-Head-Change  Column Row Layer    Maximum-Flux-Residual          L2-NORM 
          0                 1           1            49   23     2      -0.9828737139E-03      68   26    2         0.2688379547E-01      0.1309937683E+00
          0                 2           1            49   23     2      -0.8829328186E-03      63   38    2        -0.6683440289E-01      0.1622989896E+00
          0                 3           2            49   23     2       0.1678155393E-02      63   38    2        -0.5086149870E-01      0.2728104133E+00
          0                 4           1            49   23     2       0.1685510831E-03      63   38    2         0.8442333245E-01      0.1270442266E+00
          0                 5           1            63   38     2       0.2411242471E-04      63   38    2         0.4614445044E-01      0.8109158499E-01

    ------------------------------------------------
       NWT REQUIRED            5 OUTER ITERATIONS 
       AND A TOTAL OF          6 INNER ITERATIONS.
    ------------------------------------------------

 OUTPUT CONTROL FOR STRESS PERIOD    2   TIME STEP    5
    PRINT BUDGET



 STREAM LISTING     PERIOD      2   STEP        5

 LAYER ROW COL. STREAM  RCH.   FLOW INTO    STREAM     FLOW OUT OF   OVRLND.    DIRECT     STREAM      STREAM      STREAM     STREAM  STREAMBED   FLOW TO   CHNG. UNSAT. 
                SEG.NO.  NO.   STRM. RCH.    LOSS       STRM. RCH.   RUNOFF     PRECIP       ET         HEAD        DEPTH      WIDTH  CONDCTNC.   WAT. TAB.

   2   18   62     1     1    0.0000E+00  0.0000E+00   0.0000E+00  0.000E+00  0.000E+00  0.000E+00  2.07300E+03  0.000E+00  3.000E+00  1.909E+03  0.000E+00  0.000E+00
   2   19   63     1     2    0.0000E+00 -4.6610E+01   4.6610E+01  0.000E+00  0.000E+00  0.000E+00  2.06300E+03  1.179E-03  3.000E+00  1.909E+03  0.000E+00  0.000E+00
   2   20   64     1     3    4.6610E+01 -7.2630E+01   1.1924E+02  0.000E+00  0.000E+00  0.000E+00  2.05400E+03  2.764E-03  3.000E+00  1.630E+03  0.000E+00  0.000E+00
   2   21   64     1     4    1.1924E+02 -7.3817E+01   1.9306E+02  0.000E+00  0.000E+00  0.000E+00  2.05100E+03  4.975E-03  3.000E+00  1.630E+03  0.000E+00  0.000E+00
   2   22   65     1     5    1.9306E+02 -7.7230E+00   2.0078E+02  0.000E+00  0.000E+00  0.000E+00  2.04800E+03  4.871E-03  3.000E+00  9.546E+02  0.000E+00  0.000E+00
   2   20   66     2     1    0.0000E+00  0.0000E+00   0.0000E+00  0.000E+00  0.000E+00  0.000E+00  2.05300E+03  0.000E+00  3.000E+00  1.909E+03  0.000E+00  0.000E+00
   2   21   65     2     2    0.0000E+00  0.0000E+00   0.0000E+00  0.000E+00  0.000E+00  0.000E+00  2.05100E+03  0.000E+00  3.000E+00  1.630E+03  0.000E+00  0.000E+00
   2   22   65     2     3    0.0000E+00 -8.4531E+00   8.4531E+00  0.000E+00  0.000E+00  0.000E+00  2.04800E+03  4.380E-04  3.000E+00  6.750E+02  0.000E+00  0.000E+00
   2   22   65     3     1    2.0923E+02 -5.6510E+00   2.1488E+02  0.000E+00  0.000E+00  0.000E+00  2.04800E+03  4.589E-03  3.000E+00  6.750E+02  0.000E+00  0.000E+00
   2   23   65     3     2    2.1488E+02 -6.8097E+01   2.8298E+02  0.000E+00  0.000E+00  0.000E+00  2.04501E+03  8.103E-03  3.000E+00  1.630E+03  0.000E+00  0.000E+00
   2   24   66     3     3    2.8298E+02  7.0112E-01   2.8228E+02  0.000E+00  0.000E+00  0.000E+00  2.04530E+03  3.046E-01  3.000E+00  1.909E+03  0.000E+00  0.000E+00
   2   25   67     3     4    2.8228E+02  1.1107E+02   1.7121E+02  0.000E+00  0.000E+00  0.000E+00  2.04501E+03  8.034E-03  3.000E+00  1.909E+03  0.000E+00  0.000E+00
   2   26   68     3     5    1.7121E+02  1.7121E+02   0.0000E+00  0.000E+00  0.000E+00  0.000E+00  2.04200E+03  1.336E-03  3.000E+00  1.630E+03  0.000E+00  0.000E+00
   2   27   68     3     6    0.0000E+00  0.0000E+00   0.0000E+00  0.000E+00  0.000E+00  0.000E+00  2.04100E+03  0.000E+00  3.000E+00  1.630E+03  0.000E+00  0.000E+00
   2   28   69     3     7    0.0000E+00  0.0000E+00   0.0000E+00  0.000E+00  0.000E+00  0.000E+00  2.03600E+03  0.000E+00  3.000E+00  1.630E+03  0.000E+00  0.000E+00
   2   29   69     3     8    0.0000E+00  0.0000E+00   0.0000E+00  0.000E+00  0.000E+00  0.000E+00  2.02900E+03  0.000E+00  3.000E+00  1.350E+03  0.000E+00  0.000E+00
   2   30   69     3     9    0.0000E+00  0.0000E+00   0.0000E+00  0.000E+00  0.000E+00  0.000E+00  2.02300E+03  0.000E+00  3.000E+00  1.630E+03  0.000E+00  0.000E+00
   2   31   70     3    10    0.0000E+00  0.0000E+00   0.0000E+00  0.000E+00  0.000E+00  0.000E+00  2.01100E+03  0.000E+00  3.000E+00  1.630E+03  0.000E+00  0.000E+00
   2   32   70     3    11    0.0000E+00 -5.3837E+01   5.3837E+01  0.000E+00  0.000E+00  0.000E+00  2.00500E+03  1.502E-03  3.000E+00  1.350E+03  0.000E+00  0.000E+00
   2   33   70     3    12    5.3837E+01  5.3837E+01   0.0000E+00  0.000E+00  0.000E+00  0.000E+00  2.00300E+03  4.182E-04  3.000E+00  1.630E+03  5.524E+01 -1.399E+00
   2   34   69     3    13    0.0000E+00  0.0000E+00   0.0000E+00  0.000E+00  0.000E+00  0.000E+00  1.98600E+03  0.000E+00  3.000E+00  1.630E+03  0.000E+00  0.000E+00
   2   35   69     3    14    0.0000E+00 -1.1769E+02   1.1769E+02  0.000E+00  0.000E+00  0.000E+00  1.97300E+03  1.853E-03  3.000E+00  1.350E+03  0.000E+00  0.000E+00
   2   36   69     3    15    1.1769E+02  2.8020E+01   8.9669E+01  0.000E+00  0.000E+00  0.000E+00  1.96700E+03  2.852E-03  3.000E+00  1.350E+03  0.000E+00  0.000E+00
   2   37   69     3    16    8.9669E+01  8.9669E+01   0.0000E+00  0.000E+00  0.000E+00  0.000E+00  1.95900E+03  5.883E-04  3.000E+00  1.350E+03  0.000E+00  0.000E+00
   2   38   69     3    17    0.0000E+00  0.0000E+00   0.0000E+00  0.000E+00  0.000E+00  0.000E+00  1.95300E+03  0.000E+00  3.000E+00  1.630E+03  0.000E+00  0.000E+00
   2   39   70     3    18    0.0000E+00 -2.8115E+01   2.8115E+01  0.000E+00  0.000E+00  0.000E+00  1.94600E+03  8.333E-04  3.000E+00  9.546E+02  0.000E+00  0.000E+00
   2   25   49     4     1    0.0000E+00 -1.2494E+02   1.2494E+02  0.000E+00  0.000E+00  0.000E+00  2.03500E+03  2.068E-03  3.000E+00  1.909E+03  0.000E+00  0.000E+00
   2   26   50     4     2    1.2494E+02 -9.0550E+01   2.1549E+02  0.000E+00  0.000E+00  0.000E+00  2.02600E+03  4.094E-03  3.000E+00  1.909E+03  0.000E+00  0.000E+00
   2   27   51     4     3    2.1549E+02 -7.9756E+01   2.9525E+02  0.000E+00  0.000E+00  0.000E+00  2.01901E+03  5.429E-03  3.000E+00  1.630E+03  0.000E+00  0.000E+00
   2   28   51     4     4    2.9525E+02 -7.4334E+01   3.6958E+02  0.000E+00  0.000E+00  0.000E+00  2.01401E+03  6.717E-03  3.000E+00  1.630E+03  0.000E+00  0.000E+00
   2   29   52     4     5    3.6958E+02 -6.8345E+01   4.3793E+02  0.000E+00  0.000E+00  0.000E+00  2.00901E+03  7.548E-03  3.000E+00  1.630E+03  0.000E+00  0.000E+00
   2   30   52     4     6    4.3793E+02 -5.2744E+01   4.9067E+02  0.000E+00  0.000E+00  0.000E+00  2.00401E+03  7.757E-03  3.000E+00  1.350E+03  0.000E+00  0.000E+00
   2   31   52     4     7    4.9067E+02 -7.5652E+01   5.6632E+02  0.000E+00  0.000E+00  0.000E+00  1.99901E+03  9.331E-03  3.000E+00  1.350E+03  0.000E+00  0.000E+00
   2   32   52     4     8    5.6632E+02  4.2303E+00   5.6209E+02  0.000E+00  0.000E+00  0.000E+00  1.99701E+03  9.865E-03  3.000E+00  1.630E+03  0.000E+00  0.000E+00
   2   33   53     4     9    5.6209E+02  7.5572E+00   5.5454E+02  0.000E+00  0.000E+00  0.000E+00  1.99101E+03  9.614E-03  3.000E+00  1.909E+03  0.000E+00  0.000E+00
   2   34   54     4    10    5.5454E+02  1.7300E+02   3.8154E+02  0.000E+00  0.000E+00  0.000E+00  1.98701E+03  8.927E-03  3.000E+00  1.909E+03  0.000E+00  0.000E+00
   2   35   55     4    11    3.8154E+02  9.7776E+01   2.8376E+02  0.000E+00  0.000E+00  0.000E+00  1.98201E+03  6.530E-03  3.000E+00  1.630E+03  1.020E+02 -4.229E+00
   2   36   55     4    12    2.8376E+02 -8.3049E+01   3.6681E+02  0.000E+00  0.000E+00  0.000E+00  1.97601E+03  5.664E-03  3.000E+00  6.750E+02  0.000E+00  0.000E+00
   2   35   37     5     1    4.4523E+03  0.0000E+00   4.4523E+03  0.000E+00  0.000E+00  0.000E+00  2.05402E+03  2.357E-02  3.000E+00  0.000E+00  0.000E+00  0.000E+00
   2   34   38     5     2    4.4523E+03  0.0000E+00   4.4523E+03  0.000E+00  0.000E+00  0.000E+00  2.04003E+03  2.901E-02  3.000E+00  0.000E+00  0.000E+00  0.000E+00
   2   33   39     5     3    4.4523E+03  0.0000E+00   4.4523E+03  0.000E+00  0.000E+00  0.000E+00  2.03203E+03  3.450E-02  3.000E+00  0.000E+00  0.000E+00  0.000E+00
   2   32   40     5     4    4.4523E+03  0.0000E+00   4.4523E+03  0.000E+00  0.000E+00  0.000E+00  2.03003E+03  3.407E-02  3.000E+00  0.000E+00  0.000E+00  0.000E+00
   2   32   41     5     5    4.4523E+03  0.0000E+00   4.4523E+03  0.000E+00  0.000E+00  0.000E+00  2.02603E+03  2.851E-02  3.000E+00  0.000E+00  0.000E+00  0.000E+00
   2   32   42     5     6    4.4523E+03  0.0000E+00   4.4523E+03  0.000E+00  0.000E+00  0.000E+00  2.02203E+03  3.352E-02  3.000E+00  0.000E+00  0.000E+00  0.000E+00
   2   32   43     5     7    4.4523E+03  0.0000E+00   4.4523E+03  0.000E+00  0.000E+00  0.000E+00  2.02004E+03  3.713E-02  3.000E+00  0.000E+00  0.000E+00  0.000E+00
   2   33   44     5     8    4.4523E+03  0.0000E+00   4.4523E+03  0.000E+00  0.000E+00  0.000E+00  2.01904E+03  3.719E-02  3.000E+00  0.000E+00  0.000E+00  0.000E+00
   2   34   47     6     1    5.3088E+03  4.6104E+00   5.3041E+03  0.000E+00  0.000E+00  0.000E+00  2.00703E+03  2.512E-02  3.000E+00  6.750E+02  0.000E+00  0.000E+00
   2   34   48     6     2    5.3041E+03 -1.2586E+02   5.4300E+03  0.000E+00  0.000E+00  0.000E+00  2.00103E+03  3.295E-02  3.000E+00  1.630E+03  0.000E+00  0.000E+00
   2   35   49     6     3    5.4300E+03 -2.5819E+02   5.6882E+03  0.000E+00  0.000E+00  0.000E+00  1.99404E+03  3.538E-02  3.000E+00  1.630E+03  0.000E+00  0.000E+00
   2   35   50     6     4    5.6882E+03 -1.8746E+02   5.8757E+03  0.000E+00  0.000E+00  0.000E+00  1.99004E+03  4.337E-02  3.000E+00  1.350E+03  0.000E+00  0.000E+00
   2   35   51     6     5    5.8757E+03  2.4777E+01   5.8509E+03  0.000E+00  0.000E+00  0.000E+00  1.98904E+03  4.381E-02  3.000E+00  1.630E+03  0.000E+00  0.000E+00
   2   36   52     6     6    5.8509E+03 -1.1512E+02   5.9660E+03  0.000E+00  0.000E+00  0.000E+00  1.98404E+03  3.897E-02  3.000E+00  1.630E+03  0.000E+00  0.000E+00
   2   36   53     6     7    5.9660E+03 -2.5273E+02   6.2187E+03  0.000E+00  0.000E+00  0.000E+00  1.98005E+03  5.063E-02  3.000E+00  1.630E+03  0.000E+00  0.000E+00
   2   37   54     6     8    6.2187E+03 -4.0803E+01   6.2595E+03  0.000E+00  0.000E+00  0.000E+00  1.98005E+03  5.386E-02  3.000E+00  1.909E+03  0.000E+00  0.000E+00
   2   36   55     6     9    6.2595E+03 -8.3568E+01   6.3431E+03  0.000E+00  0.000E+00  0.000E+00  1.97604E+03  4.116E-02  3.000E+00  9.546E+02  0.000E+00  0.000E+00
   2   36   34     7     1    1.7107E+03 -4.9981E+01   1.7606E+03  0.000E+00  0.000E+00  0.000E+00  2.07701E+03  1.217E-02  3.000E+00  9.546E+02  0.000E+00  0.000E+00
   2   35   35     7     2    1.7606E+03 -1.0655E+02   1.8672E+03  0.000E+00  0.000E+00  0.000E+00  2.06702E+03  1.646E-02  3.000E+00  1.630E+03  0.000E+00  0.000E+00
   2   35   36     7     3    1.8672E+03  2.6978E+01   1.8402E+03  0.000E+00  0.000E+00  0.000E+00  2.06202E+03  1.645E-02  3.000E+00  1.350E+03  0.000E+00  0.000E+00
   2   35   37     7     4    1.8402E+03 -6.1556E+01   1.9018E+03  0.000E+00  0.000E+00  0.000E+00  2.05401E+03  1.263E-02  3.000E+00  6.750E+02  0.000E+00  0.000E+00
   2   52   49     8     1    0.0000E+00 -1.9130E+02   1.9130E+02  0.000E+00  0.000E+00  0.000E+00  2.12100E+03  2.752E-03  3.000E+00  1.909E+03  0.000E+00  0.000E+00
   2   51   48     8     2    1.9130E+02 -2.3582E+02   4.2713E+02  0.000E+00  0.000E+00  0.000E+00  2.11701E+03  8.878E-03  3.000E+00  1.909E+03  0.000E+00  0.000E+00
   2   50   47     8     3    4.2713E+02  1.9143E+02   2.3570E+02  0.000E+00  0.000E+00  0.000E+00  2.11701E+03  7.169E-03  3.000E+00  1.630E+03  0.000E+00  0.000E+00
   2   49   47     8     4    2.3570E+02 -2.6049E+02   4.9618E+02  0.000E+00  0.000E+00  0.000E+00  2.10901E+03  7.116E-03  3.000E+00  1.630E+03  0.000E+00  0.000E+00
   2   48   46     8     5    4.9618E+02  1.6493E+01   4.7969E+02  0.000E+00  0.000E+00  0.000E+00  2.10701E+03  1.113E-02  3.000E+00  1.630E+03  0.000E+00  0.000E+00
   2   47   46     8     6    4.7969E+02  1.7858E+02   3.0111E+02  0.000E+00  0.000E+00  0.000E+00  2.10501E+03  9.203E-03  3.000E+00  1.350E+03  0.000E+00  0.000E+00
   2   46   46     8     7    3.0111E+02  8.1000E+01   2.2011E+02  0.000E+00  0.000E+00  0.000E+00  2.10301E+03  6.394E-03  3.000E+00  1.350E+03  8.399E+01 -2.994E+00
   2   45   46     8     8    2.2011E+02  8.1000E+01   1.3911E+02  0.000E+00  0.000E+00  0.000E+00  2.09900E+03  4.154E-03  3.000E+00  1.350E+03  8.458E+01 -3.581E+00
   2   44   46     8     9    1.3911E+02  8.1000E+01   5.8106E+01  0.000E+00  0.000E+00  0.000E+00  2.09100E+03  2.526E-03  3.000E+00  1.350E+03  7.480E+01  6.201E+00
   2   43   46     8    10    5.8106E+01  5.8106E+01   0.0000E+00  0.000E+00  0.000E+00  0.000E+00  2.08000E+03  4.137E-04  3.000E+00  1.350E+03  6.082E+00  5.202E+01
   2   42   46     8    11    0.0000E+00  0.0000E+00   0.0000E+00  0.000E+00  0.000E+00  0.000E+00  2.07200E+03  0.000E+00  3.000E+00  1.630E+03  0.000E+00  0.000E+00
   2   41   45     8    12    0.0000E+00  0.0000E+00   0.0000E+00  0.000E+00  0.000E+00  0.000E+00  2.06000E+03  0.000E+00  3.000E+00  1.630E+03  0.000E+00  0.000E+00
   2   40   45     8    13    0.0000E+00  0.0000E+00   0.0000E+00  0.000E+00  0.000E+00  0.000E+00  2.05400E+03  0.000E+00  3.000E+00  1.350E+03  0.000E+00  0.000E+00
   2   39   45     8    14    0.0000E+00  0.0000E+00   0.0000E+00  0.000E+00  0.000E+00  0.000E+00  2.04600E+03  0.000E+00  3.000E+00  1.350E+03  0.000E+00  0.000E+00
   2   38   45     8    15    0.0000E+00  0.0000E+00   0.0000E+00  0.000E+00  0.000E+00  0.000E+00  2.03500E+03  0.000E+00  3.000E+00  1.350E+03  0.000E+00  0.000E+00
   2   37   45     8    16    0.0000E+00  0.0000E+00   0.0000E+00  0.000E+00  0.000E+00  0.000E+00  2.02700E+03  0.000E+00  3.000E+00  1.630E+03  0.000E+00  0.000E+00
   2   36   46     8    17    0.0000E+00  0.0000E+00   0.0000E+00  0.000E+00  0.000E+00  0.000E+00  2.02100E+03  0.000E+00  3.000E+00  1.630E+03  0.000E+00  0.000E+00
   2   35   46     8    18    0.0000E+00  0.0000E+00   0.0000E+00  0.000E+00  0.000E+00  0.000E+00  2.01400E+03  0.000E+00  3.000E+00  1.630E+03  0.000E+00  0.000E+00
   2   34   47     8    19    0.0000E+00 -1.6902E+01   1.6902E+01  0.000E+00  0.000E+00  0.000E+00  2.00700E+03  5.841E-04  3.000E+00  9.546E+02  0.000E+00  0.000E+00
   2   37   26     9     1    0.0000E+00  0.0000E+00   0.0000E+00  0.000E+00  0.000E+00  0.000E+00  2.14700E+03  0.000E+00  3.000E+00  1.350E+03  0.000E+00  0.000E+00
   2   37   27     9     2    0.0000E+00 -3.6223E+01   3.6223E+01  0.000E+00  0.000E+00  0.000E+00  2.13400E+03  8.743E-04  3.000E+00  1.350E+03  0.000E+00  0.000E+00
   2   37   28     9     3    3.6223E+01 -1.1984E+02   1.5606E+02  0.000E+00  0.000E+00  0.000E+00  2.12500E+03  2.632E-03  3.000E+00  1.630E+03  0.000E+00  0.000E+00
   2   36   29     9     4    1.5606E+02  6.3274E+01   9.2789E+01  0.000E+00  0.000E+00  0.000E+00  2.11500E+03  3.123E-03  3.000E+00  1.630E+03  0.000E+00  0.000E+00
   2   36   30     9     5    9.2789E+01 -6.2678E+01   1.5547E+02  0.000E+00  0.000E+00  0.000E+00  2.10700E+03  2.998E-03  3.000E+00  1.350E+03  0.000E+00  0.000E+00
   2   36   31     9     6    1.5547E+02 -1.8700E+02   3.4247E+02  0.000E+00  0.000E+00  0.000E+00  2.09800E+03  4.635E-03  3.000E+00  1.350E+03  0.000E+00  0.000E+00
   2   36   32     9     7    3.4247E+02 -1.3506E+02   4.7753E+02  0.000E+00  0.000E+00  0.000E+00  2.09101E+03  6.508E-03  3.000E+00  1.350E+03  0.000E+00  0.000E+00
   2   36   33     9     8    4.7753E+02 -1.3755E+02   6.1508E+02  0.000E+00  0.000E+00  0.000E+00  2.08401E+03  7.731E-03  3.000E+00  1.350E+03  0.000E+00  0.000E+00
   2   36   34     9     9    6.1508E+02 -3.9184E+01   6.5427E+02  0.000E+00  0.000E+00  0.000E+00  2.07701E+03  6.482E-03  3.000E+00  6.750E+02  0.000E+00  0.000E+00
   2   58   37    10     1    0.0000E+00  0.0000E+00   0.0000E+00  0.000E+00  0.000E+00  0.000E+00  2.15000E+03  0.000E+00  3.000E+00  1.350E+03  0.000E+00  0.000E+00
   2   57   37    10     2    0.0000E+00 -6.8932E+01   6.8932E+01  0.000E+00  0.000E+00  0.000E+00  2.14700E+03  1.919E-03  3.000E+00  1.630E+03  0.000E+00  0.000E+00
   2   56   38    10     3    6.8932E+01  7.3802E+00   6.1552E+01  0.000E+00  0.000E+00  0.000E+00  2.14300E+03  2.610E-03  3.000E+00  1.630E+03  0.000E+00  0.000E+00
   2   55   38    10     4    6.1552E+01 -1.7460E+02   2.3615E+02  0.000E+00  0.000E+00  0.000E+00  2.13800E+03  4.191E-03  3.000E+00  1.350E+03  0.000E+00  0.000E+00
   2   54   38    10     5    2.3615E+02 -1.1582E+02   3.5198E+02  0.000E+00  0.000E+00  0.000E+00  2.13501E+03  6.875E-03  3.000E+00  1.350E+03  0.000E+00  0.000E+00
   2   53   38    10     6    3.5198E+02 -1.0803E+02   4.6001E+02  0.000E+00  0.000E+00  0.000E+00  2.13201E+03  8.343E-03  3.000E+00  1.350E+03  0.000E+00  0.000E+00
   2   52   38    10     7    4.6001E+02 -1.6544E+02   6.2545E+02  0.000E+00  0.000E+00  0.000E+00  2.12901E+03  1.187E-02  3.000E+00  1.630E+03  0.000E+00  0.000E+00
   2   51   39    10     8    6.2545E+02  1.4051E+01   6.1139E+02  0.000E+00  0.000E+00  0.000E+00  2.12801E+03  1.283E-02  3.000E+00  1.630E+03  0.000E+00  0.000E+00
   2   50   39    10     9    6.1139E+02 -8.5317E+01   6.9671E+02  0.000E+00  0.000E+00  0.000E+00  2.12501E+03  1.122E-02  3.000E+00  1.630E+03  0.000E+00  0.000E+00
   2   49   38    10    10    6.9671E+02 -1.5565E+02   8.5236E+02  0.000E+00  0.000E+00  0.000E+00  2.12101E+03  1.302E-02  3.000E+00  1.909E+03  0.000E+00  0.000E+00
   2   48   37    10    11    8.5236E+02  1.8591E+01   8.3377E+02  0.000E+00  0.000E+00  0.000E+00  2.11801E+03  1.166E-02  3.000E+00  1.909E+03  0.000E+00  0.000E+00
   2   47   36    10    12    8.3377E+02 -3.4016E+02   1.1739E+03  0.000E+00  0.000E+00  0.000E+00  2.10901E+03  1.234E-02  3.000E+00  1.630E+03  0.000E+00  0.000E+00
   2   46   36    10    13    1.1739E+03 -1.3404E+02   1.3080E+03  0.000E+00  0.000E+00  0.000E+00  2.10602E+03  1.557E-02  3.000E+00  1.350E+03  0.000E+00  0.000E+00
   2   45   36    10    14    1.3080E+03 -1.6882E+02   1.4768E+03  0.000E+00  0.000E+00  0.000E+00  2.10202E+03  1.669E-02  3.000E+00  1.350E+03  0.000E+00  0.000E+00
   2   44   36    10    15    1.4768E+03 -9.9283E+01   1.5761E+03  0.000E+00  0.000E+00  0.000E+00  2.09902E+03  1.847E-02  3.000E+00  1.350E+03  0.000E+00  0.000E+00
   2   43   36    10    16    1.5761E+03 -1.9620E+01   1.5957E+03  0.000E+00  0.000E+00  0.000E+00  2.09602E+03  1.770E-02  3.000E+00  1.630E+03  0.000E+00  0.000E+00
   2   42   37    10    17    1.5957E+03  1.7709E+02   1.4186E+03  0.000E+00  0.000E+00  0.000E+00  2.09001E+03  1.445E-02  3.000E+00  1.630E+03  0.000E+00  0.000E+00
   2   41   37    10    18    1.4186E+03 -2.6342E+02   1.6820E+03  0.000E+00  0.000E+00  0.000E+00  2.08001E+03  1.389E-02  3.000E+00  1.350E+03  0.000E+00  0.000E+00
   2   40   37    10    19    1.6820E+03 -3.2557E+02   2.0076E+03  0.000E+00  0.000E+00  0.000E+00  2.07402E+03  1.938E-02  3.000E+00  1.630E+03  0.000E+00  0.000E+00
   2   39   38    10    20    2.0076E+03 -2.8571E+01   2.0362E+03  0.000E+00  0.000E+00  0.000E+00  2.07102E+03  2.208E-02  3.000E+00  1.630E+03  0.000E+00  0.000E+00
   2   38   38    10    21    2.0362E+03  2.5394E+01   2.0108E+03  0.000E+00  0.000E+00  0.000E+00  2.06702E+03  1.985E-02  3.000E+00  1.630E+03  0.000E+00  0.000E+00
   2   37   37    10    22    2.0108E+03 -2.8545E+02   2.2962E+03  0.000E+00  0.000E+00  0.000E+00  2.06102E+03  2.061E-02  3.000E+00  1.630E+03  0.000E+00  0.000E+00
   2   36   37    10    23    2.2962E+03 -1.9563E+02   2.4918E+03  0.000E+00  0.000E+00  0.000E+00  2.05702E+03  2.310E-02  3.000E+00  1.350E+03  0.000E+00  0.000E+00
   2   35   37    10    24    2.4918E+03 -5.8673E+01   2.5505E+03  0.000E+00  0.000E+00  0.000E+00  2.05402E+03  1.690E-02  3.000E+00  6.750E+02  0.000E+00  0.000E+00
   2   36   55    11     1    6.7099E+03 -6.3303E+01   6.7732E+03  0.000E+00  0.000E+00  0.000E+00  1.97603E+03  3.492E-02  3.000E+00  6.750E+02  0.000E+00  0.000E+00
   2   36   56    11     2    6.7732E+03 -1.0845E+02   6.8817E+03  0.000E+00  0.000E+00  0.000E+00  1.97506E+03  5.910E-02  3.000E+00  1.630E+03  0.000E+00  0.000E+00
   2   37   57    11     3    6.8817E+03 -1.1350E+02   6.9952E+03  0.000E+00  0.000E+00  0.000E+00  1.97306E+03  5.967E-02  3.000E+00  1.630E+03  0.000E+00  0.000E+00
   2   37   58    11     4    6.9952E+03 -6.6549E+01   7.0617E+03  0.000E+00  0.000E+00  0.000E+00  1.97208E+03  7.902E-02  3.000E+00  1.350E+03  0.000E+00  0.000E+00
   2   37   59    11     5    7.0617E+03  5.2736E+01   7.0090E+03  0.000E+00  0.000E+00  0.000E+00  1.97206E+03  6.422E-02  3.000E+00  1.350E+03  0.000E+00  0.000E+00
   2   37   60    11     6    7.0090E+03 -3.7501E+01   7.0465E+03  0.000E+00  0.000E+00  0.000E+00  1.97005E+03  5.159E-02  3.000E+00  1.630E+03  0.000E+00  0.000E+00
   2   38   61    11     7    7.0465E+03 -1.4612E+02   7.1926E+03  0.000E+00  0.000E+00  0.000E+00  1.96705E+03  4.700E-02  3.000E+00  1.630E+03  0.000E+00  0.000E+00
   2   38   62    11     8    7.1926E+03 -1.0236E+02   7.2950E+03  0.000E+00  0.000E+00  0.000E+00  1.96304E+03  4.312E-02  3.000E+00  6.750E+02  0.000E+00  0.000E+00
   2   51   11    12     1    0.0000E+00 -3.7004E+02   3.7004E+02  0.000E+00  0.000E+00  0.000E+00  2.38700E+03  3.912E-03  3.000E+00  1.909E+03  0.000E+00  0.000E+00
   2   50   12    12     2    3.7004E+02 -5.4114E+01   4.2415E+02  0.000E+00  0.000E+00  0.000E+00  2.37501E+03  5.899E-03  3.000E+00  1.630E+03  0.000E+00  0.000E+00
   2   49   12    12     3    4.2415E+02 -3.7266E+02   7.9681E+02  0.000E+00  0.000E+00  0.000E+00  2.36501E+03  7.979E-03  3.000E+00  1.630E+03  0.000E+00  0.000E+00
   2   48   13    12     4    7.9681E+02 -1.5918E+02   9.5599E+02  0.000E+00  0.000E+00  0.000E+00  2.35601E+03  1.064E-02  3.000E+00  1.630E+03  0.000E+00  0.000E+00
   2   48   14    12     5    9.5599E+02 -1.6329E+02   1.1193E+03  0.000E+00  0.000E+00  0.000E+00  2.35001E+03  1.155E-02  3.000E+00  1.630E+03  0.000E+00  0.000E+00
   2   47   15    12     6    1.1193E+03 -1.6097E+02   1.2803E+03  0.000E+00  0.000E+00  0.000E+00  2.34001E+03  1.285E-02  3.000E+00  1.630E+03  0.000E+00  0.000E+00
   2   47   16    12     7    1.2803E+03 -1.3594E+02   1.4162E+03  0.000E+00  0.000E+00  0.000E+00  2.33502E+03  1.512E-02  3.000E+00  1.630E+03  0.000E+00  0.000E+00
   2   46   17    12     8    1.4162E+03  7.2025E+01   1.3442E+03  0.000E+00  0.000E+00  0.000E+00  2.32901E+03  1.427E-02  3.000E+00  1.630E+03  0.000E+00  0.000E+00
   2   46   18    12     9    1.3442E+03  1.5551E+02   1.1887E+03  0.000E+00  0.000E+00  0.000E+00  2.32101E+03  1.103E-02  3.000E+00  1.350E+03  0.000E+00  0.000E+00
   2   46   19    12    10    1.1887E+03 -4.4752E+02   1.6362E+03  0.000E+00  0.000E+00  0.000E+00  2.30601E+03  1.339E-02  3.000E+00  1.350E+03  0.000E+00  0.000E+00
   2   46   20    12    11    1.6362E+03  7.5943E+02   8.7675E+02  0.000E+00  0.000E+00  0.000E+00  2.30601E+03  1.052E-02  3.000E+00  1.630E+03  0.000E+00  0.000E+00
   2   45   21    12    12    8.7675E+02 -3.1380E+02   1.1905E+03  0.000E+00  0.000E+00  0.000E+00  2.27401E+03  8.298E-03  3.000E+00  1.909E+03  0.000E+00  0.000E+00
   2   44   22    12    13    1.1905E+03 -1.7046E+02   1.3610E+03  0.000E+00  0.000E+00  0.000E+00  2.25001E+03  1.019E-02  3.000E+00  1.909E+03  0.000E+00  0.000E+00
   2   43   23    12    14    1.3610E+03  1.4803E+02   1.2130E+03  0.000E+00  0.000E+00  0.000E+00  2.23101E+03  1.032E-02  3.000E+00  1.909E+03  0.000E+00  0.000E+00
   2   42   24    12    15    1.2130E+03 -7.3871E+01   1.2868E+03  0.000E+00  0.000E+00  0.000E+00  2.20801E+03  1.059E-02  3.000E+00  1.630E+03  0.000E+00  0.000E+00
   2   42   25    12    16    1.2868E+03 -1.1624E+01   1.2985E+03  0.000E+00  0.000E+00  0.000E+00  2.20001E+03  1.165E-02  3.000E+00  1.350E+03  0.000E+00  0.000E+00
   2   42   26    12    17    1.2985E+03  1.2628E+02   1.1722E+03  0.000E+00  0.000E+00  0.000E+00  2.18801E+03  1.004E-02  3.000E+00  1.350E+03  0.000E+00  0.000E+00
   2   42   27    12    18    1.1722E+03 -2.5916E+02   1.4314E+03  0.000E+00  0.000E+00  0.000E+00  2.17001E+03  1.046E-02  3.000E+00  1.350E+03  0.000E+00  0.000E+00
   2   42   28    12    19    1.4314E+03 -8.9409E+01   1.5208E+03  0.000E+00  0.000E+00  0.000E+00  2.15901E+03  1.206E-02  3.000E+00  1.630E+03  0.000E+00  0.000E+00
   2   41   29    12    20    1.5208E+03  1.5355E+02   1.3672E+03  0.000E+00  0.000E+00  0.000E+00  2.14201E+03  1.199E-02  3.000E+00  1.909E+03  0.000E+00  0.000E+00
   2   40   30    12    21    1.3672E+03  7.9045E+01   1.2882E+03  0.000E+00  0.000E+00  0.000E+00  2.12701E+03  1.200E-02  3.000E+00  1.909E+03  0.000E+00  0.000E+00
   2   39   31    12    22    1.2882E+03  1.1455E+02   1.1736E+03  0.000E+00  0.000E+00  0.000E+00  2.11501E+03  1.188E-02  3.000E+00  1.909E+03  1.150E+02 -4.651E-01
   2   38   32    12    23    1.1736E+03  1.1455E+02   1.0591E+03  0.000E+00  0.000E+00  0.000E+00  2.10301E+03  1.094E-02  3.000E+00  1.909E+03  1.198E+02 -5.262E+00
   2   37   33    12    24    1.0591E+03  5.5771E+01   1.0033E+03  0.000E+00  0.000E+00  0.000E+00  2.08901E+03  1.043E-02  3.000E+00  1.909E+03  0.000E+00  0.000E+00
   2   36   34    12    25    1.0033E+03 -5.3106E+01   1.0564E+03  0.000E+00  0.000E+00  0.000E+00  2.07701E+03  8.901E-03  3.000E+00  9.546E+02  0.000E+00  0.000E+00
   2   38   62    13     1    7.4784E+03 -1.0883E+02   7.5872E+03  0.000E+00  0.000E+00  0.000E+00  1.96303E+03  3.354E-02  3.000E+00  6.750E+02  0.000E+00  0.000E+00
   2   38   63    13     2    7.5872E+03 -6.4051E+00   7.5936E+03  0.000E+00  0.000E+00  0.000E+00  1.96519E+03  2.194E+00  3.000E+00  1.350E+03  0.000E+00  0.000E+00
   2   38   64    13     3    7.5936E+03  2.7820E+01   7.5658E+03  0.000E+00  0.000E+00  0.000E+00  1.96519E+03  2.192E+00  3.000E+00  1.350E+03  0.000E+00  0.000E+00
   2   38   65    13     4    7.5658E+03 -1.1671E+01   7.5774E+03  0.000E+00  0.000E+00  0.000E+00  1.96306E+03  5.943E-02  3.000E+00  6.750E+02  0.000E+00  0.000E+00
   2   46   61    14     1    0.0000E+00  0.0000E+00   0.0000E+00  0.000E+00  0.000E+00  0.000E+00  2.01700E+03  0.000E+00  3.000E+00  1.350E+03  0.000E+00  0.000E+00
   2   45   61    14     2    0.0000E+00  0.0000E+00   0.0000E+00  0.000E+00  0.000E+00  0.000E+00  2.01000E+03  0.000E+00  3.000E+00  1.350E+03  0.000E+00  0.000E+00
   2   44   61    14     3    0.0000E+00  0.0000E+00   0.0000E+00  0.000E+00  0.000E+00  0.000E+00  2.00600E+03  0.000E+00  3.000E+00  1.350E+03  0.000E+00  0.000E+00
   2   43   61    14     4    0.0000E+00  0.0000E+00   0.0000E+00  0.000E+00  0.000E+00  0.000E+00  1.99900E+03  0.000E+00  3.000E+00  1.350E+03  0.000E+00  0.000E+00
   2   42   61    14     5    0.0000E+00  0.0000E+00   0.0000E+00  0.000E+00  0.000E+00  0.000E+00  1.99300E+03  0.000E+00  3.000E+00  1.350E+03  0.000E+00  0.000E+00
   2   41   61    14     6    0.0000E+00  0.0000E+00   0.0000E+00  0.000E+00  0.000E+00  0.000E+00  1.98500E+03  0.000E+00  3.000E+00  1.350E+03  0.000E+00  0.000E+00
   2   40   61    14     7    0.0000E+00  0.0000E+00   0.0000E+00  0.000E+00  0.000E+00  0.000E+00  1.97800E+03  0.000E+00  3.000E+00  1.350E+03  0.000E+00  0.000E+00
   2   39   61    14     8    0.0000E+00  0.0000E+00   0.0000E+00  0.000E+00  0.000E+00  0.000E+00  1.97300E+03  0.000E+00  3.000E+00  1.630E+03  0.000E+00  0.000E+00
   2   38   62    14     9    0.0000E+00 -1.8340E+02   1.8340E+02  0.000E+00  0.000E+00  0.000E+00  1.96300E+03  2.642E-03  3.000E+00  9.546E+02  0.000E+00  0.000E+00
   2   39   70    15     1    7.8744E+03  2.1471E+00   7.8723E+03  0.000E+00  0.000E+00  0.000E+00  1.94603E+03  3.347E-02  3.000E+00  6.750E+02  0.000E+00  0.000E+00
   2   40   75    16     1    1.5000E+04 -2.8255E+01   1.5028E+04  0.000E+00  0.000E+00  0.000E+00  1.93406E+03  6.245E-02  3.000E+00  6.750E+02  0.000E+00  0.000E+00
   2   40   76    16     2    1.5028E+04  0.0000E+00   1.5028E+04  0.000E+00  0.000E+00  0.000E+00  1.93309E+03  8.967E-02  3.000E+00  0.000E+00  0.000E+00  0.000E+00
   2   55   73    17     1    0.0000E+00  0.0000E+00   0.0000E+00  0.000E+00  0.000E+00  0.000E+00  2.04100E+03  0.000E+00  3.000E+00  1.350E+03  0.000E+00  0.000E+00
   2   54   73    17     2    0.0000E+00  0.0000E+00   0.0000E+00  0.000E+00  0.000E+00  0.000E+00  2.02900E+03  0.000E+00  3.000E+00  1.350E+03  0.000E+00  0.000E+00
   2   53   73    17     3    0.0000E+00  0.0000E+00   0.0000E+00  0.000E+00  0.000E+00  0.000E+00  2.01700E+03  0.000E+00  3.000E+00  1.350E+03  0.000E+00  0.000E+00
   2   52   73    17     4    0.0000E+00  0.0000E+00   0.0000E+00  0.000E+00  0.000E+00  0.000E+00  2.01000E+03  0.000E+00  3.000E+00  1.630E+03  0.000E+00  0.000E+00
   2   51   72    17     5    0.0000E+00  0.0000E+00   0.0000E+00  0.000E+00  0.000E+00  0.000E+00  1.99800E+03  0.000E+00  3.000E+00  1.630E+03  0.000E+00  0.000E+00
   2   50   72    17     6    0.0000E+00 -4.9742E+01   4.9742E+01  0.000E+00  0.000E+00  0.000E+00  1.97500E+03  1.269E-03  3.000E+00  1.350E+03  0.000E+00  0.000E+00
   2   49   72    17     7    4.9742E+01  0.0000E+00   4.9742E+01  0.000E+00  0.000E+00  0.000E+00  1.95600E+03  1.838E-03  3.000E+00  0.000E+00  0.000E+00  0.000E+00
   2   48   72    17     8    4.9742E+01  0.0000E+00   4.9742E+01  0.000E+00  0.000E+00  0.000E+00  1.95200E+03  1.836E-03  3.000E+00  0.000E+00  0.000E+00  0.000E+00
   2   47   72    17     9    4.9742E+01  0.0000E+00   4.9742E+01  0.000E+00  0.000E+00  0.000E+00  1.95000E+03  1.884E-03  3.000E+00  0.000E+00  0.000E+00  0.000E+00
   2   46   72    17    10    4.9742E+01  0.0000E+00   4.9742E+01  0.000E+00  0.000E+00  0.000E+00  1.94800E+03  1.922E-03  3.000E+00  0.000E+00  0.000E+00  0.000E+00
   2   45   72    17    11    4.9742E+01  0.0000E+00   4.9742E+01  0.000E+00  0.000E+00  0.000E+00  1.94400E+03  1.945E-03  3.000E+00  0.000E+00  0.000E+00  0.000E+00
   2   44   73    17    12    4.9742E+01  0.0000E+00   4.9742E+01  0.000E+00  0.000E+00  0.000E+00  1.94200E+03  1.978E-03  3.000E+00  0.000E+00  0.000E+00  0.000E+00
   2   43   73    17    13    4.9742E+01  0.0000E+00   4.9742E+01  0.000E+00  0.000E+00  0.000E+00  1.94200E+03  2.180E-03  3.000E+00  0.000E+00  0.000E+00  0.000E+00
   2   42   73    17    14    4.9742E+01  0.0000E+00   4.9742E+01  0.000E+00  0.000E+00  0.000E+00  1.94100E+03  2.211E-03  3.000E+00  0.000E+00  0.000E+00  0.000E+00
   2   34   45    18     1    5.1946E+03 -3.2886E+01   5.2275E+03  0.000E+00  0.000E+00  0.000E+00  2.01794E+03  3.744E-02  3.000E+00  1.630E+03  0.000E+00  0.000E+00
   2   34   46    18     2    5.2275E+03 -7.0346E+01   5.2978E+03  0.000E+00  0.000E+00  0.000E+00  2.01103E+03  3.436E-02  3.000E+00  1.350E+03  0.000E+00  0.000E+00
   2   34   47    18     3    5.2978E+03  5.9749E+00   5.2919E+03  0.000E+00  0.000E+00  0.000E+00  2.00703E+03  2.714E-02  3.000E+00  6.750E+02  0.000E+00  0.000E+00
   2   41   74    19     1    1.0311E+04 -2.2204E+02   1.0533E+04  0.000E+00  0.000E+00  0.000E+00  1.93806E+03  5.566E-02  3.000E+00  1.909E+03  0.000E+00  0.000E+00
   2   40   75    19     2    1.0533E+04 -4.6031E+01   1.0579E+04  0.000E+00  0.000E+00  0.000E+00  1.93406E+03  5.609E-02  3.000E+00  9.546E+02  0.000E+00  0.000E+00
   2   39   66    20     1    0.0000E+00  0.0000E+00   0.0000E+00  0.000E+00  0.000E+00  0.000E+00  1.96250E+03  0.000E+00  1.500E+00  8.148E+02  0.000E+00  0.000E+00
   2   39   67    20     2    0.0000E+00  0.0000E+00   0.0000E+00  0.000E+00  0.000E+00  0.000E+00  1.96225E+03  0.000E+00  1.500E+00  6.750E+02  0.000E+00  0.000E+00
   2   40   68    20     3    0.0000E+00  0.0000E+00   0.0000E+00  0.000E+00  0.000E+00  0.000E+00  1.96200E+03  0.000E+00  1.500E+00  9.546E+02  0.000E+00  0.000E+00
   2   41   69    20     4    0.0000E+00  0.0000E+00   0.0000E+00  0.000E+00  0.000E+00  0.000E+00  1.96175E+03  0.000E+00  1.500E+00  8.148E+02  0.000E+00  0.000E+00
   2   42   69    20     5    0.0000E+00  0.0000E+00   0.0000E+00  0.000E+00  0.000E+00  0.000E+00  1.96150E+03  0.000E+00  1.500E+00  8.148E+02  0.000E+00  0.000E+00
   2   43   70    20     6    0.0000E+00  0.0000E+00   0.0000E+00  0.000E+00  0.000E+00  0.000E+00  1.96125E+03  0.000E+00  1.500E+00  8.148E+02  0.000E+00  0.000E+00
   2   38   66    21     1    7.5774E+03 -7.0625E+01   7.6481E+03  0.000E+00  0.000E+00  0.000E+00  1.96005E+03  5.115E-02  3.000E+00  1.350E+03  0.000E+00  0.000E+00
   2   38   67    21     2    7.6481E+03  1.6262E+01   7.6318E+03  0.000E+00  0.000E+00  0.000E+00  1.95805E+03  4.903E-02  3.000E+00  1.630E+03  0.000E+00  0.000E+00
   2   39   68    21     3    7.6318E+03 -1.1583E+01   7.6434E+03  0.000E+00  0.000E+00  0.000E+00  1.95304E+03  4.405E-02  3.000E+00  1.630E+03  0.000E+00  0.000E+00
   2   39   69    21     4    7.6434E+03 -2.0961E+02   7.8530E+03  0.000E+00  0.000E+00  0.000E+00  1.94805E+03  4.673E-02  3.000E+00  1.350E+03  0.000E+00  0.000E+00
   2   39   70    21     5    7.8530E+03  6.6030E+00   7.8464E+03  0.000E+00  0.000E+00  0.000E+00  1.94604E+03  4.007E-02  3.000E+00  6.750E+02  0.000E+00  0.000E+00
   2   38   71    22     1    4.0000E+03 -5.4584E+01   4.0546E+03  0.000E+00  0.000E+00  0.000E+00  1.94556E+03  5.986E-02  3.000E+00  3.259E+02  0.000E+00  0.000E+00
   2   38   72    22     2    4.0546E+03 -3.8767E+01   4.0934E+03  0.000E+00  0.000E+00  0.000E+00  1.94506E+03  6.028E-02  3.000E+00  3.259E+02  0.000E+00  0.000E+00
   2   39   73    22     3    4.0934E+03  1.2820E+02   3.9651E+03  0.000E+00  0.000E+00  0.000E+00  1.94456E+03  5.988E-02  3.000E+00  3.259E+02  0.000E+00  0.000E+00
   2   39   74    22     4    3.9651E+03  8.1000E+01   3.8841E+03  0.000E+00  0.000E+00  0.000E+00  1.94406E+03  5.571E-02  3.000E+00  2.700E+02  8.544E+01 -4.442E+00
   2   39   75    22     5    3.8841E+03  8.1000E+01   3.8031E+03  0.000E+00  0.000E+00  0.000E+00  1.94356E+03  5.502E-02  3.000E+00  2.700E+02  8.496E+01 -3.964E+00
   2   39   76    22     6    3.8031E+03  0.0000E+00   3.8031E+03  0.000E+00  0.000E+00  0.000E+00  1.94305E+03  5.467E-02  3.000E+00  0.000E+00  0.000E+00  0.000E+00
   2   39   71    23     1    3.8723E+03 -1.8502E+02   4.0573E+03  0.000E+00  0.000E+00  0.000E+00  1.94204E+03  3.659E-02  3.000E+00  1.630E+03  0.000E+00  0.000E+00
   2   40   72    23     2    4.0573E+03 -7.2799E+01   4.1301E+03  0.000E+00  0.000E+00  0.000E+00  1.94104E+03  3.989E-02  3.000E+00  1.630E+03  0.000E+00  0.000E+00
   2   40   73    23     3    4.1301E+03 -1.7653E+02   4.3066E+03  0.000E+00  0.000E+00  0.000E+00  1.93804E+03  3.589E-02  3.000E+00  1.350E+03  0.000E+00  0.000E+00
   2   40   74    23     4    4.3066E+03 -6.7746E+01   4.3744E+03  0.000E+00  0.000E+00  0.000E+00  1.93604E+03  3.904E-02  3.000E+00  1.350E+03  0.000E+00  0.000E+00
   2   40   75    23     5    4.3744E+03 -4.6889E+01   4.4213E+03  0.000E+00  0.000E+00  0.000E+00  1.93403E+03  3.484E-02  3.000E+00  6.750E+02  0.000E+00  0.000E+00



1
  VOLUMETRIC BUDGET FOR UNSATURATED ZONE BENEATH STREAMS AT END OF TIME STEP     5 STRESS PERIOD   2
  ------------------------------------------------------------------------------------------------

    CUMULATIVE VOLUMES             L**3    RATES FOR THIS TIME STEP         L**3/T
    ------------------                     ------------------------


          STREAM LOSS =         4317.1206            STREAM LOSS =          843.8208
    CHANGE IN STORAGE =          953.3132      CHANGE IN STORAGE =           31.8872
       RECHARGE TO GW =         3363.8076         RECHARGE TO GW =          811.9337

             TOTAL IN =         4317.1206               TOTAL IN =          843.8208

            TOTAL OUT =         4317.1211              TOTAL OUT =          843.8209

             IN - OUT =       -4.8828E-04               IN - OUT =       -6.1035E-05

  PERCENT DISCREPANCY =           -0.00      PERCENT DISCREPANCY =            -0.00



 ***WARNING***NUZTOP IS 3 AND ALL LAYERS  IN ROW           39  AND COLUMN 
          76  ARE INACTIVE.
 UNSATURATED FLOW WILL NOT BE ADDED TO ANY LAYER-- SOME WATER MAY FLOW PAST
  LOWEST LAYER
 ***WARNING***NUZTOP IS 3 AND ALL LAYERS  IN ROW           40  AND COLUMN 
          76  ARE INACTIVE.
 UNSATURATED FLOW WILL NOT BE ADDED TO ANY LAYER-- SOME WATER MAY FLOW PAST
  LOWEST LAYER


UNSATURATED ZONE PACKAGE VOLUMETRIC BUDGET FOR  TIME STEP     5 STRESS PERIOD    2
  ------------------------------------------------------------------------------



     CUMULATIVE VOLUMES      L**3       RATES FOR THIS TIME STEP      L**3/T
     ------------------                 ------------------------

           IN:                                      IN:
           ---                                      ---
        INFILTRATION =       26039.6903          INFILTRATION =       0.0000E+00

          OUT:                                     OUT:
          ----                                     ----
              UZF ET =      134575.1080                UZF ET =       25364.8349
        UZF RECHARGE =      173015.0091          UZF RECHARGE =       27035.3839

            IN - OUT =     -281550.4268              IN - OUT =      -52400.2188

          STORAGE:                                 STORAGE:
          --------                                 --------
      STORAGE CHANGE =     -280760.0200        STORAGE CHANGE =      -52313.0231

 PERCENT DISCREPANCY IS DIFFERENCE BETWEEN IN-OUT MINUS CHANGE IN STORAGE
 DIVIDED BY THE AVERAGE OF IN AND OUT TIMES 100

 PERCENT DISCREPANCY =          -0.06     PERCENT DISCREPANCY =          -0.17






1
  VOLUMETRIC BUDGET FOR ENTIRE MODEL AT END OF TIME STEP    5, STRESS PERIOD   2
  ------------------------------------------------------------------------------

     CUMULATIVE VOLUMES      L**3       RATES FOR THIS TIME STEP      L**3/T
     ------------------                 ------------------------

           IN:                                      IN:
           ---                                      ---
             STORAGE     =         668.3851               STORAGE     =         238.7889
       CONSTANT HEAD     =          17.3049         CONSTANT HEAD     =       6.5631E-02
      STREAM LEAKAGE     =       24851.7227        STREAM LEAKAGE     =        3935.4221
       LAKE  SEEPAGE     =        1928.0369         LAKE  SEEPAGE     =         291.3115
        UZF RECHARGE     =      173028.4844          UZF RECHARGE     =       27035.4277
               GW ET     =           0.0000                 GW ET     =           0.0000
     SURFACE LEAKAGE     =           0.0000       SURFACE LEAKAGE     =           0.0000

                TOTAL IN =      200493.9375                  TOTAL IN =       31501.0156

          OUT:                                     OUT:
          ----                                     ----
             STORAGE     =       84671.5391               STORAGE     =       14034.1035
       CONSTANT HEAD     =         375.8272         CONSTANT HEAD     =          63.4280
      STREAM LEAKAGE     =       65199.9766        STREAM LEAKAGE     =       11795.5801
       LAKE  SEEPAGE     =       15828.2275         LAKE  SEEPAGE     =        2641.0063
        UZF RECHARGE     =           0.0000          UZF RECHARGE     =           0.0000
               GW ET     =       33199.9922                 GW ET     =        2717.2871
     SURFACE LEAKAGE     =        1559.2230       SURFACE LEAKAGE     =         319.3958

               TOTAL OUT =      200834.7812                 TOTAL OUT =       31570.8008

                IN - OUT =        -340.8438                  IN - OUT =         -69.7852

     PERCENT DISCREPANCY =          -0.17         PERCENT DISCREPANCY =          -0.22






         TIME SUMMARY AT END OF TIME STEP    5 IN STRESS PERIOD    2
                    SECONDS     MINUTES      HOURS       DAYS        YEARS
                    -----------------------------------------------------------
   TIME STEP LENGTH  86400.      1440.0      24.000      1.0000     2.73785E-03
 STRESS PERIOD TIME 4.32000E+05  7200.0      120.00      5.0000     1.36893E-02
         TOTAL TIME 5.18400E+05  8640.0      144.00      6.0000     1.64271E-02
1
                                                   Max.-Head-Change                         Max.-Flux-Residual
  Residual-Control   Outer-Iter.   Inner-Iter.     Column Row Layer    Maximum-Head-Change  Column Row Layer    Maximum-Flux-Residual          L2-NORM 
          0                 1           4            69   18     2       0.1057903426E+01      68   26    2         0.1652011721E+03      0.5319228723E+03
          0                 2           5             4   57     2       0.2155680406E+01      68   26    2         0.8588839791E+02      0.1496351020E+03
          0                 3           4             4   57     2      -0.1453682859E+00      51   58    2         0.1893370693E+03      0.1919757878E+03
          0                 4           3            51   58     2       0.2952942590E-01      51   58    2         0.4961773778E+02      0.5032066589E+02
          0                 5           2            51   58     2       0.7674222393E-02      51   58    2         0.1289319384E+02      0.1318478726E+02
          0                 6           2            51   58     2       0.1995788248E-02      51   58    2         0.3351622014E+01      0.3503536995E+01
          0                 7           1            51   58     2       0.5192797915E-03      51   58    2         0.8713371196E+00      0.9588891835E+00
          0                 8           1            51   58     2       0.1351974651E-03      51   58    2         0.2265016870E+00      0.2793925141E+00
          0                 9           1             4   59     2       0.4682044941E-04      51   58    2         0.5886761664E-01      0.9078172754E-01

    ------------------------------------------------
       NWT REQUIRED            9 OUTER ITERATIONS 
       AND A TOTAL OF         23 INNER ITERATIONS.
    ------------------------------------------------
                                                   Max.-Head-Change                         Max.-Flux-Residual
  Residual-Control   Outer-Iter.   Inner-Iter.     Column Row Layer    Maximum-Head-Change  Column Row Layer    Maximum-Flux-Residual          L2-NORM 
          0                 1           3            10   52     2      -0.9033384159E-01      63   38    2         0.1732690705E+02      0.2334700931E+02
          0                 2           3             9   53     2      -0.1242002042E+00       9   53    2        -0.7020032056E+01      0.9264153805E+01
          0                 3           4             9   53     2       0.1229115737E+00       9   53    2         0.7722966838E+01      0.1039126358E+02
          0                 4           3             9   53     2       0.1256929597E-01       9   53    2         0.7721756711E+00      0.1386044226E+01
          0                 5           2             9   53     2       0.1348798056E-02      11   52    2         0.2474999927E+00      0.4128046274E+00
          0                 6           1             9   53     2       0.1399355607E-03      11   52    2         0.8913413047E-01      0.1424331924E+00
          0                 7           1             9   53     3       0.4310290285E-04      11   52    2         0.3030502743E-01      0.5146914511E-01

    ------------------------------------------------
       NWT REQUIRED            7 OUTER ITERATIONS 
       AND A TOTAL OF         17 INNER ITERATIONS.
    ------------------------------------------------
                                                   Max.-Head-Change                         Max.-Flux-Residual
  Residual-Control   Outer-Iter.   Inner-Iter.     Column Row Layer    Maximum-Head-Change  Column Row Layer    Maximum-Flux-Residual          L2-NORM 
          0                 1           3            10   52     2      -0.9031826010E-01      10   52    2        -0.6941761964E+01      0.6942819199E+01
          0                 2           4             9   53     2      -0.1241949495E+00       9   53    2        -0.7020080468E+01      0.7101136641E+01
          0                 3           4             9   53     2       0.1229059506E+00       9   53    2         0.7722624074E+01      0.1037459368E+02
          0                 4           3             9   53     2       0.1256875741E-01       9   53    2         0.7721414998E+00      0.1385864452E+01
          0                 5           2             9   53     2       0.1348758641E-02      11   52    2         0.2475446593E+00      0.4147621773E+00
          0                 6           1             9   53     2       0.1399039040E-03      11   52    2         0.8914956380E-01      0.1438662834E+00
          0                 7           1             9   53     3       0.4308985057E-04      11   52    2         0.3031970858E-01      0.5227168647E-01

    ------------------------------------------------
       NWT REQUIRED            7 OUTER ITERATIONS 
       AND A TOTAL OF         18 INNER ITERATIONS.
    ------------------------------------------------
                                                   Max.-Head-Change                         Max.-Flux-Residual
  Residual-Control   Outer-Iter.   Inner-Iter.     Column Row Layer    Maximum-Head-Change  Column Row Layer    Maximum-Flux-Residual          L2-NORM 
          0                 1           3            10   52     2      -0.9031824819E-01      10   52    2        -0.6941761641E+01      0.6942826239E+01
          0                 2           4             9   53     2      -0.1241949499E+00       9   53    2        -0.7020080500E+01      0.7101204007E+01
          0                 3           4             9   53     2       0.1229059507E+00       9   53    2         0.7722624079E+01      0.1037452737E+02
          0                 4           3             9   53     2       0.1256875821E-01       9   53    2         0.7721415006E+00      0.1386678844E+01
          0                 5           2             9   53     2       0.1348753909E-02      11   52    2         0.2475446681E+00      0.4136815067E+00
          0                 6           1             9   53     2       0.1399318399E-03      11   52    2         0.8914914506E-01      0.1423181645E+00
          0                 7           1             9   53     3       0.4310406319E-04      11   52    2         0.3030905991E-01      0.5125415133E-01

    ------------------------------------------------
       NWT REQUIRED            7 OUTER ITERATIONS 
       AND A TOTAL OF         18 INNER ITERATIONS.
    ------------------------------------------------

 OUTPUT CONTROL FOR STRESS PERIOD    2   TIME STEP    6
    PRINT BUDGET



 STREAM LISTING     PERIOD      2   STEP        6

 LAYER ROW COL. STREAM  RCH.   FLOW INTO    STREAM     FLOW OUT OF   OVRLND.    DIRECT     STREAM      STREAM      STREAM     STREAM  STREAMBED   FLOW TO   CHNG. UNSAT. 
                SEG.NO.  NO.   STRM. RCH.    LOSS       STRM. RCH.   RUNOFF     PRECIP       ET         HEAD        DEPTH      WIDTH  CONDCTNC.   WAT. TAB.

   2   18   62     1     1    0.0000E+00  0.0000E+00   0.0000E+00  0.000E+00  0.000E+00  0.000E+00  2.07300E+03  0.000E+00  3.000E+00  1.909E+03  0.000E+00  0.000E+00
   2   19   63     1     2    0.0000E+00 -4.7334E+01   4.7334E+01  0.000E+00  0.000E+00  0.000E+00  2.06300E+03  1.190E-03  3.000E+00  1.909E+03  0.000E+00  0.000E+00
   2   20   64     1     3    4.7334E+01 -7.3352E+01   1.2069E+02  0.000E+00  0.000E+00  0.000E+00  2.05400E+03  2.786E-03  3.000E+00  1.630E+03  0.000E+00  0.000E+00
   2   21   64     1     4    1.2069E+02 -7.4660E+01   1.9535E+02  0.000E+00  0.000E+00  0.000E+00  2.05101E+03  5.011E-03  3.000E+00  1.630E+03  0.000E+00  0.000E+00
   2   22   65     1     5    1.9535E+02 -8.0781E+00   2.0342E+02  0.000E+00  0.000E+00  0.000E+00  2.04800E+03  4.907E-03  3.000E+00  9.546E+02  0.000E+00  0.000E+00
   2   20   66     2     1    0.0000E+00  0.0000E+00   0.0000E+00  0.000E+00  0.000E+00  0.000E+00  2.05300E+03  0.000E+00  3.000E+00  1.909E+03  0.000E+00  0.000E+00
   2   21   65     2     2    0.0000E+00  0.0000E+00   0.0000E+00  0.000E+00  0.000E+00  0.000E+00  2.05100E+03  0.000E+00  3.000E+00  1.630E+03  0.000E+00  0.000E+00
   2   22   65     2     3    0.0000E+00 -8.7233E+00   8.7233E+00  0.000E+00  0.000E+00  0.000E+00  2.04800E+03  4.464E-04  3.000E+00  6.750E+02  0.000E+00  0.000E+00
   2   22   65     3     1    2.1215E+02 -5.9002E+00   2.1805E+02  0.000E+00  0.000E+00  0.000E+00  2.04800E+03  4.629E-03  3.000E+00  6.750E+02  0.000E+00  0.000E+00
   2   23   65     3     2    2.1805E+02 -6.9124E+01   2.8717E+02  0.000E+00  0.000E+00  0.000E+00  2.04501E+03  8.175E-03  3.000E+00  1.630E+03  0.000E+00  0.000E+00
   2   24   66     3     3    2.8717E+02 -3.9516E-01   2.8757E+02  0.000E+00  0.000E+00  0.000E+00  2.04531E+03  3.077E-01  3.000E+00  1.909E+03  0.000E+00  0.000E+00
   2   25   67     3     4    2.8757E+02  6.1275E+01   2.2629E+02  0.000E+00  0.000E+00  0.000E+00  2.04501E+03  8.660E-03  3.000E+00  1.909E+03  0.000E+00  0.000E+00
   2   26   68     3     5    2.2629E+02  2.2629E+02   0.0000E+00  0.000E+00  0.000E+00  0.000E+00  2.04200E+03  1.579E-03  3.000E+00  1.630E+03  0.000E+00  0.000E+00
   2   27   68     3     6    0.0000E+00  0.0000E+00   0.0000E+00  0.000E+00  0.000E+00  0.000E+00  2.04100E+03  0.000E+00  3.000E+00  1.630E+03  0.000E+00  0.000E+00
   2   28   69     3     7    0.0000E+00  0.0000E+00   0.0000E+00  0.000E+00  0.000E+00  0.000E+00  2.03600E+03  0.000E+00  3.000E+00  1.630E+03  0.000E+00  0.000E+00
   2   29   69     3     8    0.0000E+00  0.0000E+00   0.0000E+00  0.000E+00  0.000E+00  0.000E+00  2.02900E+03  0.000E+00  3.000E+00  1.350E+03  0.000E+00  0.000E+00
   2   30   69     3     9    0.0000E+00  0.0000E+00   0.0000E+00  0.000E+00  0.000E+00  0.000E+00  2.02300E+03  0.000E+00  3.000E+00  1.630E+03  0.000E+00  0.000E+00
   2   31   70     3    10    0.0000E+00  0.0000E+00   0.0000E+00  0.000E+00  0.000E+00  0.000E+00  2.01100E+03  0.000E+00  3.000E+00  1.630E+03  0.000E+00  0.000E+00
   2   32   70     3    11    0.0000E+00 -5.6066E+01   5.6066E+01  0.000E+00  0.000E+00  0.000E+00  2.00500E+03  1.539E-03  3.000E+00  1.350E+03  0.000E+00  0.000E+00
   2   33   70     3    12    5.6066E+01  5.6066E+01   0.0000E+00  0.000E+00  0.000E+00  0.000E+00  2.00300E+03  4.285E-04  3.000E+00  1.630E+03  5.742E+01 -1.350E+00
   2   34   69     3    13    0.0000E+00  0.0000E+00   0.0000E+00  0.000E+00  0.000E+00  0.000E+00  1.98600E+03  0.000E+00  3.000E+00  1.630E+03  0.000E+00  0.000E+00
   2   35   69     3    14    0.0000E+00 -1.1840E+02   1.1840E+02  0.000E+00  0.000E+00  0.000E+00  1.97300E+03  1.859E-03  3.000E+00  1.350E+03  0.000E+00  0.000E+00
   2   36   69     3    15    1.1840E+02  2.4429E+01   9.3968E+01  0.000E+00  0.000E+00  0.000E+00  1.96700E+03  2.894E-03  3.000E+00  1.350E+03  0.000E+00  0.000E+00
   2   37   69     3    16    9.3968E+01  9.3968E+01   0.0000E+00  0.000E+00  0.000E+00  0.000E+00  1.95900E+03  6.050E-04  3.000E+00  1.350E+03  0.000E+00  0.000E+00
   2   38   69     3    17    0.0000E+00  0.0000E+00   0.0000E+00  0.000E+00  0.000E+00  0.000E+00  1.95300E+03  0.000E+00  3.000E+00  1.630E+03  0.000E+00  0.000E+00
   2   39   70     3    18    0.0000E+00 -2.8559E+01   2.8559E+01  0.000E+00  0.000E+00  0.000E+00  1.94600E+03  8.412E-04  3.000E+00  9.546E+02  0.000E+00  0.000E+00
   2   25   49     4     1    0.0000E+00 -1.2934E+02   1.2934E+02  0.000E+00  0.000E+00  0.000E+00  2.03500E+03  2.111E-03  3.000E+00  1.909E+03  0.000E+00  0.000E+00
   2   26   50     4     2    1.2934E+02 -9.1339E+01   2.2068E+02  0.000E+00  0.000E+00  0.000E+00  2.02600E+03  4.163E-03  3.000E+00  1.909E+03  0.000E+00  0.000E+00
   2   27   51     4     3    2.2068E+02 -8.0572E+01   3.0125E+02  0.000E+00  0.000E+00  0.000E+00  2.01901E+03  5.500E-03  3.000E+00  1.630E+03  0.000E+00  0.000E+00
   2   28   51     4     4    3.0125E+02 -7.4754E+01   3.7600E+02  0.000E+00  0.000E+00  0.000E+00  2.01401E+03  6.792E-03  3.000E+00  1.630E+03  0.000E+00  0.000E+00
   2   29   52     4     5    3.7600E+02 -6.8768E+01   4.4477E+02  0.000E+00  0.000E+00  0.000E+00  2.00901E+03  7.622E-03  3.000E+00  1.630E+03  0.000E+00  0.000E+00
   2   30   52     4     6    4.4477E+02 -5.3160E+01   4.9793E+02  0.000E+00  0.000E+00  0.000E+00  2.00401E+03  7.828E-03  3.000E+00  1.350E+03  0.000E+00  0.000E+00
   2   31   52     4     7    4.9793E+02 -7.6071E+01   5.7400E+02  0.000E+00  0.000E+00  0.000E+00  1.99901E+03  9.410E-03  3.000E+00  1.350E+03  0.000E+00  0.000E+00
   2   32   52     4     8    5.7400E+02  3.7597E+00   5.7024E+02  0.000E+00  0.000E+00  0.000E+00  1.99701E+03  9.948E-03  3.000E+00  1.630E+03  0.000E+00  0.000E+00
   2   33   53     4     9    5.7024E+02  6.7394E+00   5.6350E+02  0.000E+00  0.000E+00  0.000E+00  1.99101E+03  9.702E-03  3.000E+00  1.909E+03  0.000E+00  0.000E+00
   2   34   54     4    10    5.6350E+02  1.6135E+02   4.0215E+02  0.000E+00  0.000E+00  0.000E+00  1.98701E+03  9.095E-03  3.000E+00  1.909E+03  0.000E+00  0.000E+00
   2   35   55     4    11    4.0215E+02  9.7776E+01   3.0437E+02  0.000E+00  0.000E+00  0.000E+00  1.98201E+03  6.770E-03  3.000E+00  1.630E+03  1.015E+02 -3.755E+00
   2   36   55     4    12    3.0437E+02 -8.4116E+01   3.8849E+02  0.000E+00  0.000E+00  0.000E+00  1.97601E+03  5.883E-03  3.000E+00  6.750E+02  0.000E+00  0.000E+00
   2   35   37     5     1    4.5286E+03  0.0000E+00   4.5286E+03  0.000E+00  0.000E+00  0.000E+00  2.05402E+03  2.381E-02  3.000E+00  0.000E+00  0.000E+00  0.000E+00
   2   34   38     5     2    4.5286E+03  0.0000E+00   4.5286E+03  0.000E+00  0.000E+00  0.000E+00  2.04003E+03  2.932E-02  3.000E+00  0.000E+00  0.000E+00  0.000E+00
   2   33   39     5     3    4.5286E+03  0.0000E+00   4.5286E+03  0.000E+00  0.000E+00  0.000E+00  2.03203E+03  3.485E-02  3.000E+00  0.000E+00  0.000E+00  0.000E+00
   2   32   40     5     4    4.5286E+03  0.0000E+00   4.5286E+03  0.000E+00  0.000E+00  0.000E+00  2.03003E+03  3.442E-02  3.000E+00  0.000E+00  0.000E+00  0.000E+00
   2   32   41     5     5    4.5286E+03  0.0000E+00   4.5286E+03  0.000E+00  0.000E+00  0.000E+00  2.02603E+03  2.880E-02  3.000E+00  0.000E+00  0.000E+00  0.000E+00
   2   32   42     5     6    4.5286E+03  0.0000E+00   4.5286E+03  0.000E+00  0.000E+00  0.000E+00  2.02203E+03  3.386E-02  3.000E+00  0.000E+00  0.000E+00  0.000E+00
   2   32   43     5     7    4.5286E+03  0.0000E+00   4.5286E+03  0.000E+00  0.000E+00  0.000E+00  2.02004E+03  3.753E-02  3.000E+00  0.000E+00  0.000E+00  0.000E+00
   2   33   44     5     8    4.5286E+03  0.0000E+00   4.5286E+03  0.000E+00  0.000E+00  0.000E+00  2.01904E+03  3.757E-02  3.000E+00  0.000E+00  0.000E+00  0.000E+00
   2   34   47     6     1    5.4065E+03  4.5429E+00   5.4019E+03  0.000E+00  0.000E+00  0.000E+00  2.00703E+03  2.540E-02  3.000E+00  6.750E+02  0.000E+00  0.000E+00
   2   34   48     6     2    5.4019E+03 -1.2635E+02   5.5283E+03  0.000E+00  0.000E+00  0.000E+00  2.00103E+03  3.331E-02  3.000E+00  1.630E+03  0.000E+00  0.000E+00
   2   35   49     6     3    5.5283E+03 -2.5927E+02   5.7876E+03  0.000E+00  0.000E+00  0.000E+00  1.99404E+03  3.576E-02  3.000E+00  1.630E+03  0.000E+00  0.000E+00
   2   35   50     6     4    5.7876E+03 -1.8839E+02   5.9760E+03  0.000E+00  0.000E+00  0.000E+00  1.99004E+03  4.382E-02  3.000E+00  1.350E+03  0.000E+00  0.000E+00
   2   35   51     6     5    5.9760E+03  2.3957E+01   5.9520E+03  0.000E+00  0.000E+00  0.000E+00  1.98904E+03  4.426E-02  3.000E+00  1.630E+03  0.000E+00  0.000E+00
   2   36   52     6     6    5.9520E+03 -1.1648E+02   6.0685E+03  0.000E+00  0.000E+00  0.000E+00  1.98404E+03  3.938E-02  3.000E+00  1.630E+03  0.000E+00  0.000E+00
   2   36   53     6     7    6.0685E+03 -2.5386E+02   6.3223E+03  0.000E+00  0.000E+00  0.000E+00  1.98005E+03  5.114E-02  3.000E+00  1.630E+03  0.000E+00  0.000E+00
   2   37   54     6     8    6.3223E+03 -4.2393E+01   6.3647E+03  0.000E+00  0.000E+00  0.000E+00  1.98005E+03  5.440E-02  3.000E+00  1.909E+03  0.000E+00  0.000E+00
   2   36   55     6     9    6.3647E+03 -8.4891E+01   6.4496E+03  0.000E+00  0.000E+00  0.000E+00  1.97604E+03  4.157E-02  3.000E+00  9.546E+02  0.000E+00  0.000E+00
   2   36   34     7     1    1.7598E+03 -5.0272E+01   1.8100E+03  0.000E+00  0.000E+00  0.000E+00  2.07701E+03  1.238E-02  3.000E+00  9.546E+02  0.000E+00  0.000E+00
   2   35   35     7     2    1.8100E+03 -1.0709E+02   1.9171E+03  0.000E+00  0.000E+00  0.000E+00  2.06702E+03  1.673E-02  3.000E+00  1.630E+03  0.000E+00  0.000E+00
   2   35   36     7     3    1.9171E+03  2.5401E+01   1.8917E+03  0.000E+00  0.000E+00  0.000E+00  2.06202E+03  1.672E-02  3.000E+00  1.350E+03  0.000E+00  0.000E+00
   2   35   37     7     4    1.8917E+03 -6.1750E+01   1.9535E+03  0.000E+00  0.000E+00  0.000E+00  2.05401E+03  1.284E-02  3.000E+00  6.750E+02  0.000E+00  0.000E+00
   2   52   49     8     1    0.0000E+00 -1.9233E+02   1.9233E+02  0.000E+00  0.000E+00  0.000E+00  2.12100E+03  2.760E-03  3.000E+00  1.909E+03  0.000E+00  0.000E+00
   2   51   48     8     2    1.9233E+02 -2.3625E+02   4.2858E+02  0.000E+00  0.000E+00  0.000E+00  2.11701E+03  8.900E-03  3.000E+00  1.909E+03  0.000E+00  0.000E+00
   2   50   47     8     3    4.2858E+02  1.9096E+02   2.3762E+02  0.000E+00  0.000E+00  0.000E+00  2.11701E+03  7.191E-03  3.000E+00  1.630E+03  0.000E+00  0.000E+00
   2   49   47     8     4    2.3762E+02 -2.6092E+02   4.9853E+02  0.000E+00  0.000E+00  0.000E+00  2.10901E+03  7.140E-03  3.000E+00  1.630E+03  0.000E+00  0.000E+00
   2   48   46     8     5    4.9853E+02  1.5686E+01   4.8285E+02  0.000E+00  0.000E+00  0.000E+00  2.10701E+03  1.117E-02  3.000E+00  1.630E+03  0.000E+00  0.000E+00
   2   47   46     8     6    4.8285E+02  1.7564E+02   3.0721E+02  0.000E+00  0.000E+00  0.000E+00  2.10501E+03  9.268E-03  3.000E+00  1.350E+03  0.000E+00  0.000E+00
   2   46   46     8     7    3.0721E+02  8.1000E+01   2.2621E+02  0.000E+00  0.000E+00  0.000E+00  2.10301E+03  6.484E-03  3.000E+00  1.350E+03  8.382E+01 -2.824E+00
   2   45   46     8     8    2.2621E+02  8.1000E+01   1.4521E+02  0.000E+00  0.000E+00  0.000E+00  2.09900E+03  4.238E-03  3.000E+00  1.350E+03  8.445E+01 -3.445E+00
   2   44   46     8     9    1.4521E+02  8.1000E+01   6.4208E+01  0.000E+00  0.000E+00  0.000E+00  2.09100E+03  2.618E-03  3.000E+00  1.350E+03  8.441E+01 -3.415E+00
   2   43   46     8    10    6.4208E+01  6.4208E+01   0.0000E+00  0.000E+00  0.000E+00  0.000E+00  2.08000E+03  4.393E-04  3.000E+00  1.350E+03  6.226E+01  1.947E+00
   2   42   46     8    11    0.0000E+00  0.0000E+00   0.0000E+00  0.000E+00  0.000E+00  0.000E+00  2.07200E+03  0.000E+00  3.000E+00  1.630E+03  0.000E+00  0.000E+00
   2   41   45     8    12    0.0000E+00  0.0000E+00   0.0000E+00  0.000E+00  0.000E+00  0.000E+00  2.06000E+03  0.000E+00  3.000E+00  1.630E+03  0.000E+00  0.000E+00
   2   40   45     8    13    0.0000E+00  0.0000E+00   0.0000E+00  0.000E+00  0.000E+00  0.000E+00  2.05400E+03  0.000E+00  3.000E+00  1.350E+03  0.000E+00  0.000E+00
   2   39   45     8    14    0.0000E+00  0.0000E+00   0.0000E+00  0.000E+00  0.000E+00  0.000E+00  2.04600E+03  0.000E+00  3.000E+00  1.350E+03  0.000E+00  0.000E+00
   2   38   45     8    15    0.0000E+00  0.0000E+00   0.0000E+00  0.000E+00  0.000E+00  0.000E+00  2.03500E+03  0.000E+00  3.000E+00  1.350E+03  0.000E+00  0.000E+00
   2   37   45     8    16    0.0000E+00  0.0000E+00   0.0000E+00  0.000E+00  0.000E+00  0.000E+00  2.02700E+03  0.000E+00  3.000E+00  1.630E+03  0.000E+00  0.000E+00
   2   36   46     8    17    0.0000E+00  0.0000E+00   0.0000E+00  0.000E+00  0.000E+00  0.000E+00  2.02100E+03  0.000E+00  3.000E+00  1.630E+03  0.000E+00  0.000E+00
   2   35   46     8    18    0.0000E+00  0.0000E+00   0.0000E+00  0.000E+00  0.000E+00  0.000E+00  2.01400E+03  0.000E+00  3.000E+00  1.630E+03  0.000E+00  0.000E+00
   2   34   47     8    19    0.0000E+00 -1.7255E+01   1.7255E+01  0.000E+00  0.000E+00  0.000E+00  2.00700E+03  5.913E-04  3.000E+00  9.546E+02  0.000E+00  0.000E+00
   2   37   26     9     1    0.0000E+00  0.0000E+00   0.0000E+00  0.000E+00  0.000E+00  0.000E+00  2.14700E+03  0.000E+00  3.000E+00  1.350E+03  0.000E+00  0.000E+00
   2   37   27     9     2    0.0000E+00 -3.6863E+01   3.6863E+01  0.000E+00  0.000E+00  0.000E+00  2.13400E+03  8.836E-04  3.000E+00  1.350E+03  0.000E+00  0.000E+00
   2   37   28     9     3    3.6863E+01 -1.2100E+02   1.5787E+02  0.000E+00  0.000E+00  0.000E+00  2.12500E+03  2.652E-03  3.000E+00  1.630E+03  0.000E+00  0.000E+00
   2   36   29     9     4    1.5787E+02  4.5460E+01   1.1241E+02  0.000E+00  0.000E+00  0.000E+00  2.11500E+03  3.281E-03  3.000E+00  1.630E+03  0.000E+00  0.000E+00
   2   36   30     9     5    1.1241E+02 -6.4226E+01   1.7663E+02  0.000E+00  0.000E+00  0.000E+00  2.10700E+03  3.284E-03  3.000E+00  1.350E+03  0.000E+00  0.000E+00
   2   36   31     9     6    1.7663E+02 -1.8803E+02   3.6467E+02  0.000E+00  0.000E+00  0.000E+00  2.09800E+03  4.874E-03  3.000E+00  1.350E+03  0.000E+00  0.000E+00
   2   36   32     9     7    3.6467E+02 -1.3631E+02   5.0098E+02  0.000E+00  0.000E+00  0.000E+00  2.09101E+03  6.723E-03  3.000E+00  1.350E+03  0.000E+00  0.000E+00
   2   36   33     9     8    5.0098E+02 -1.3809E+02   6.3906E+02  0.000E+00  0.000E+00  0.000E+00  2.08401E+03  7.931E-03  3.000E+00  1.350E+03  0.000E+00  0.000E+00
   2   36   34     9     9    6.3906E+02 -3.9430E+01   6.7849E+02  0.000E+00  0.000E+00  0.000E+00  2.07701E+03  6.629E-03  3.000E+00  6.750E+02  0.000E+00  0.000E+00
   2   58   37    10     1    0.0000E+00  0.0000E+00   0.0000E+00  0.000E+00  0.000E+00  0.000E+00  2.15000E+03  0.000E+00  3.000E+00  1.350E+03  0.000E+00  0.000E+00
   2   57   37    10     2    0.0000E+00 -7.0663E+01   7.0663E+01  0.000E+00  0.000E+00  0.000E+00  2.14700E+03  1.948E-03  3.000E+00  1.630E+03  0.000E+00  0.000E+00
   2   56   38    10     3    7.0663E+01 -2.2432E+00   7.2906E+01  0.000E+00  0.000E+00  0.000E+00  2.14300E+03  2.764E-03  3.000E+00  1.630E+03  0.000E+00  0.000E+00
   2   55   38    10     4    7.2906E+01 -1.7519E+02   2.4810E+02  0.000E+00  0.000E+00  0.000E+00  2.13800E+03  4.385E-03  3.000E+00  1.350E+03  0.000E+00  0.000E+00
   2   54   38    10     5    2.4810E+02 -1.1649E+02   3.6459E+02  0.000E+00  0.000E+00  0.000E+00  2.13501E+03  7.046E-03  3.000E+00  1.350E+03  0.000E+00  0.000E+00
   2   53   38    10     6    3.6459E+02 -1.0886E+02   4.7345E+02  0.000E+00  0.000E+00  0.000E+00  2.13201E+03  8.502E-03  3.000E+00  1.350E+03  0.000E+00  0.000E+00
   2   52   38    10     7    4.7345E+02 -1.6664E+02   6.4009E+02  0.000E+00  0.000E+00  0.000E+00  2.12901E+03  1.205E-02  3.000E+00  1.630E+03  0.000E+00  0.000E+00
   2   51   39    10     8    6.4009E+02  1.2834E+01   6.2726E+02  0.000E+00  0.000E+00  0.000E+00  2.12801E+03  1.302E-02  3.000E+00  1.630E+03  0.000E+00  0.000E+00
   2   50   39    10     9    6.2726E+02 -8.5813E+01   7.1307E+02  0.000E+00  0.000E+00  0.000E+00  2.12501E+03  1.139E-02  3.000E+00  1.630E+03  0.000E+00  0.000E+00
   2   49   38    10    10    7.1307E+02 -1.5615E+02   8.6922E+02  0.000E+00  0.000E+00  0.000E+00  2.12101E+03  1.319E-02  3.000E+00  1.909E+03  0.000E+00  0.000E+00
   2   48   37    10    11    8.6922E+02  1.8133E+01   8.5109E+02  0.000E+00  0.000E+00  0.000E+00  2.11801E+03  1.180E-02  3.000E+00  1.909E+03  0.000E+00  0.000E+00
   2   47   36    10    12    8.5109E+02 -3.4061E+02   1.1917E+03  0.000E+00  0.000E+00  0.000E+00  2.10901E+03  1.247E-02  3.000E+00  1.630E+03  0.000E+00  0.000E+00
   2   46   36    10    13    1.1917E+03 -1.3449E+02   1.3262E+03  0.000E+00  0.000E+00  0.000E+00  2.10602E+03  1.571E-02  3.000E+00  1.350E+03  0.000E+00  0.000E+00
   2   45   36    10    14    1.3262E+03 -1.6927E+02   1.4954E+03  0.000E+00  0.000E+00  0.000E+00  2.10202E+03  1.682E-02  3.000E+00  1.350E+03  0.000E+00  0.000E+00
   2   44   36    10    15    1.4954E+03 -9.9695E+01   1.5951E+03  0.000E+00  0.000E+00  0.000E+00  2.09902E+03  1.860E-02  3.000E+00  1.350E+03  0.000E+00  0.000E+00
   2   43   36    10    16    1.5951E+03 -2.0071E+01   1.6152E+03  0.000E+00  0.000E+00  0.000E+00  2.09602E+03  1.783E-02  3.000E+00  1.630E+03  0.000E+00  0.000E+00
   2   42   37    10    17    1.6152E+03  1.7640E+02   1.4388E+03  0.000E+00  0.000E+00  0.000E+00  2.09001E+03  1.456E-02  3.000E+00  1.630E+03  0.000E+00  0.000E+00
   2   41   37    10    18    1.4388E+03 -2.6384E+02   1.7027E+03  0.000E+00  0.000E+00  0.000E+00  2.08001E+03  1.400E-02  3.000E+00  1.350E+03  0.000E+00  0.000E+00
   2   40   37    10    19    1.7027E+03 -3.2628E+02   2.0289E+03  0.000E+00  0.000E+00  0.000E+00  2.07402E+03  1.952E-02  3.000E+00  1.630E+03  0.000E+00  0.000E+00
   2   39   38    10    20    2.0289E+03 -2.9238E+01   2.0582E+03  0.000E+00  0.000E+00  0.000E+00  2.07102E+03  2.223E-02  3.000E+00  1.630E+03  0.000E+00  0.000E+00
   2   38   38    10    21    2.0582E+03  2.4705E+01   2.0335E+03  0.000E+00  0.000E+00  0.000E+00  2.06702E+03  1.998E-02  3.000E+00  1.630E+03  0.000E+00  0.000E+00
   2   37   37    10    22    2.0335E+03 -2.8626E+02   2.3197E+03  0.000E+00  0.000E+00  0.000E+00  2.06102E+03  2.074E-02  3.000E+00  1.630E+03  0.000E+00  0.000E+00
   2   36   37    10    23    2.3197E+03 -1.9645E+02   2.5162E+03  0.000E+00  0.000E+00  0.000E+00  2.05702E+03  2.324E-02  3.000E+00  1.350E+03  0.000E+00  0.000E+00
   2   35   37    10    24    2.5162E+03 -5.8940E+01   2.5751E+03  0.000E+00  0.000E+00  0.000E+00  2.05402E+03  1.700E-02  3.000E+00  6.750E+02  0.000E+00  0.000E+00
   2   36   55    11     1    6.8381E+03 -6.4248E+01   6.9024E+03  0.000E+00  0.000E+00  0.000E+00  1.97604E+03  3.532E-02  3.000E+00  6.750E+02  0.000E+00  0.000E+00
   2   36   56    11     2    6.9024E+03 -1.1030E+02   7.0127E+03  0.000E+00  0.000E+00  0.000E+00  1.97506E+03  5.977E-02  3.000E+00  1.630E+03  0.000E+00  0.000E+00
   2   37   57    11     3    7.0127E+03 -1.1521E+02   7.1279E+03  0.000E+00  0.000E+00  0.000E+00  1.97306E+03  6.035E-02  3.000E+00  1.630E+03  0.000E+00  0.000E+00
   2   37   58    11     4    7.1279E+03 -6.7682E+01   7.1956E+03  0.000E+00  0.000E+00  0.000E+00  1.97208E+03  7.992E-02  3.000E+00  1.350E+03  0.000E+00  0.000E+00
   2   37   59    11     5    7.1956E+03  5.1300E+01   7.1442E+03  0.000E+00  0.000E+00  0.000E+00  1.97206E+03  6.496E-02  3.000E+00  1.350E+03  0.000E+00  0.000E+00
   2   37   60    11     6    7.1442E+03 -3.8725E+01   7.1830E+03  0.000E+00  0.000E+00  0.000E+00  1.97005E+03  5.219E-02  3.000E+00  1.630E+03  0.000E+00  0.000E+00
   2   38   61    11     7    7.1830E+03 -1.4724E+02   7.3302E+03  0.000E+00  0.000E+00  0.000E+00  1.96705E+03  4.754E-02  3.000E+00  1.630E+03  0.000E+00  0.000E+00
   2   38   62    11     8    7.3302E+03 -1.0253E+02   7.4327E+03  0.000E+00  0.000E+00  0.000E+00  1.96304E+03  4.361E-02  3.000E+00  6.750E+02  0.000E+00  0.000E+00
   2   51   11    12     1    0.0000E+00 -3.7323E+02   3.7323E+02  0.000E+00  0.000E+00  0.000E+00  2.38700E+03  3.932E-03  3.000E+00  1.909E+03  0.000E+00  0.000E+00
   2   50   12    12     2    3.7323E+02 -5.4708E+01   4.2794E+02  0.000E+00  0.000E+00  0.000E+00  2.37501E+03  5.930E-03  3.000E+00  1.630E+03  0.000E+00  0.000E+00
   2   49   12    12     3    4.2794E+02 -3.7394E+02   8.0188E+02  0.000E+00  0.000E+00  0.000E+00  2.36501E+03  8.013E-03  3.000E+00  1.630E+03  0.000E+00  0.000E+00
   2   48   13    12     4    8.0188E+02 -1.6063E+02   9.6251E+02  0.000E+00  0.000E+00  0.000E+00  2.35601E+03  1.068E-02  3.000E+00  1.630E+03  0.000E+00  0.000E+00
   2   48   14    12     5    9.6251E+02 -1.6421E+02   1.1267E+03  0.000E+00  0.000E+00  0.000E+00  2.35001E+03  1.160E-02  3.000E+00  1.630E+03  0.000E+00  0.000E+00
   2   47   15    12     6    1.1267E+03 -1.6248E+02   1.2892E+03  0.000E+00  0.000E+00  0.000E+00  2.34001E+03  1.290E-02  3.000E+00  1.630E+03  0.000E+00  0.000E+00
   2   47   16    12     7    1.2892E+03 -1.3654E+02   1.4257E+03  0.000E+00  0.000E+00  0.000E+00  2.33502E+03  1.518E-02  3.000E+00  1.630E+03  0.000E+00  0.000E+00
   2   46   17    12     8    1.4257E+03  7.1165E+01   1.3546E+03  0.000E+00  0.000E+00  0.000E+00  2.32901E+03  1.433E-02  3.000E+00  1.630E+03  0.000E+00  0.000E+00
   2   46   18    12     9    1.3546E+03  1.5486E+02   1.1997E+03  0.000E+00  0.000E+00  0.000E+00  2.32101E+03  1.109E-02  3.000E+00  1.350E+03  0.000E+00  0.000E+00
   2   46   19    12    10    1.1997E+03 -4.4794E+02   1.6477E+03  0.000E+00  0.000E+00  0.000E+00  2.30601E+03  1.345E-02  3.000E+00  1.350E+03  0.000E+00  0.000E+00
   2   46   20    12    11    1.6477E+03  7.6058E+02   8.8707E+02  0.000E+00  0.000E+00  0.000E+00  2.30601E+03  1.058E-02  3.000E+00  1.630E+03  0.000E+00  0.000E+00
   2   45   21    12    12    8.8707E+02 -3.1426E+02   1.2013E+03  0.000E+00  0.000E+00  0.000E+00  2.27401E+03  8.348E-03  3.000E+00  1.909E+03  0.000E+00  0.000E+00
   2   44   22    12    13    1.2013E+03 -1.7092E+02   1.3722E+03  0.000E+00  0.000E+00  0.000E+00  2.25001E+03  1.024E-02  3.000E+00  1.909E+03  0.000E+00  0.000E+00
   2   43   23    12    14    1.3722E+03  1.4716E+02   1.2251E+03  0.000E+00  0.000E+00  0.000E+00  2.23101E+03  1.037E-02  3.000E+00  1.909E+03  0.000E+00  0.000E+00
   2   42   24    12    15    1.2251E+03 -7.4565E+01   1.2997E+03  0.000E+00  0.000E+00  0.000E+00  2.20801E+03  1.065E-02  3.000E+00  1.630E+03  0.000E+00  0.000E+00
   2   42   25    12    16    1.2997E+03 -1.2468E+01   1.3121E+03  0.000E+00  0.000E+00  0.000E+00  2.20001E+03  1.172E-02  3.000E+00  1.350E+03  0.000E+00  0.000E+00
   2   42   26    12    17    1.3121E+03  1.2543E+02   1.1867E+03  0.000E+00  0.000E+00  0.000E+00  2.18801E+03  1.010E-02  3.000E+00  1.350E+03  0.000E+00  0.000E+00
   2   42   27    12    18    1.1867E+03 -2.5957E+02   1.4463E+03  0.000E+00  0.000E+00  0.000E+00  2.17001E+03  1.053E-02  3.000E+00  1.350E+03  0.000E+00  0.000E+00
   2   42   28    12    19    1.4463E+03 -8.9819E+01   1.5361E+03  0.000E+00  0.000E+00  0.000E+00  2.15901E+03  1.214E-02  3.000E+00  1.630E+03  0.000E+00  0.000E+00
   2   41   29    12    20    1.5361E+03  1.5284E+02   1.3832E+03  0.000E+00  0.000E+00  0.000E+00  2.14201E+03  1.207E-02  3.000E+00  1.909E+03  0.000E+00  0.000E+00
   2   40   30    12    21    1.3832E+03  7.7738E+01   1.3055E+03  0.000E+00  0.000E+00  0.000E+00  2.12701E+03  1.209E-02  3.000E+00  1.909E+03  0.000E+00  0.000E+00
   2   39   31    12    22    1.3055E+03  1.1455E+02   1.1910E+03  0.000E+00  0.000E+00  0.000E+00  2.11501E+03  1.198E-02  3.000E+00  1.909E+03  1.151E+02 -5.164E-01
   2   38   32    12    23    1.1910E+03  1.1455E+02   1.0764E+03  0.000E+00  0.000E+00  0.000E+00  2.10301E+03  1.104E-02  3.000E+00  1.909E+03  1.194E+02 -4.822E+00
   2   37   33    12    24    1.0764E+03  4.8597E+01   1.0278E+03  0.000E+00  0.000E+00  0.000E+00  2.08901E+03  1.056E-02  3.000E+00  1.909E+03  0.000E+00  0.000E+00
   2   36   34    12    25    1.0278E+03 -5.3472E+01   1.0813E+03  0.000E+00  0.000E+00  0.000E+00  2.07701E+03  9.028E-03  3.000E+00  9.546E+02  0.000E+00  0.000E+00
   2   38   62    13     1    7.6168E+03 -1.0908E+02   7.7259E+03  0.000E+00  0.000E+00  0.000E+00  1.96303E+03  3.390E-02  3.000E+00  6.750E+02  0.000E+00  0.000E+00
   2   38   63    13     2    7.7259E+03 -5.8403E+00   7.7318E+03  0.000E+00  0.000E+00  0.000E+00  1.96522E+03  2.218E+00  3.000E+00  1.350E+03  0.000E+00  0.000E+00
   2   38   64    13     3    7.7318E+03  2.8364E+01   7.7034E+03  0.000E+00  0.000E+00  0.000E+00  1.96522E+03  2.216E+00  3.000E+00  1.350E+03  0.000E+00  0.000E+00
   2   38   65    13     4    7.7034E+03 -1.2635E+01   7.7160E+03  0.000E+00  0.000E+00  0.000E+00  1.96306E+03  6.008E-02  3.000E+00  6.750E+02  0.000E+00  0.000E+00
   2   46   61    14     1    0.0000E+00  0.0000E+00   0.0000E+00  0.000E+00  0.000E+00  0.000E+00  2.01700E+03  0.000E+00  3.000E+00  1.350E+03  0.000E+00  0.000E+00
   2   45   61    14     2    0.0000E+00  0.0000E+00   0.0000E+00  0.000E+00  0.000E+00  0.000E+00  2.01000E+03  0.000E+00  3.000E+00  1.350E+03  0.000E+00  0.000E+00
   2   44   61    14     3    0.0000E+00  0.0000E+00   0.0000E+00  0.000E+00  0.000E+00  0.000E+00  2.00600E+03  0.000E+00  3.000E+00  1.350E+03  0.000E+00  0.000E+00
   2   43   61    14     4    0.0000E+00  0.0000E+00   0.0000E+00  0.000E+00  0.000E+00  0.000E+00  1.99900E+03  0.000E+00  3.000E+00  1.350E+03  0.000E+00  0.000E+00
   2   42   61    14     5    0.0000E+00  0.0000E+00   0.0000E+00  0.000E+00  0.000E+00  0.000E+00  1.99300E+03  0.000E+00  3.000E+00  1.350E+03  0.000E+00  0.000E+00
   2   41   61    14     6    0.0000E+00  0.0000E+00   0.0000E+00  0.000E+00  0.000E+00  0.000E+00  1.98500E+03  0.000E+00  3.000E+00  1.350E+03  0.000E+00  0.000E+00
   2   40   61    14     7    0.0000E+00  0.0000E+00   0.0000E+00  0.000E+00  0.000E+00  0.000E+00  1.97800E+03  0.000E+00  3.000E+00  1.350E+03  0.000E+00  0.000E+00
   2   39   61    14     8    0.0000E+00  0.0000E+00   0.0000E+00  0.000E+00  0.000E+00  0.000E+00  1.97300E+03  0.000E+00  3.000E+00  1.630E+03  0.000E+00  0.000E+00
   2   38   62    14     9    0.0000E+00 -1.8410E+02   1.8410E+02  0.000E+00  0.000E+00  0.000E+00  1.96300E+03  2.648E-03  3.000E+00  9.546E+02  0.000E+00  0.000E+00
   2   39   70    15     1    8.0169E+03  2.0723E+00   8.0149E+03  0.000E+00  0.000E+00  0.000E+00  1.94603E+03  3.383E-02  3.000E+00  6.750E+02  0.000E+00  0.000E+00
   2   40   75    16     1    1.5000E+04 -2.8729E+01   1.5029E+04  0.000E+00  0.000E+00  0.000E+00  1.93406E+03  6.245E-02  3.000E+00  6.750E+02  0.000E+00  0.000E+00
   2   40   76    16     2    1.5029E+04  0.0000E+00   1.5029E+04  0.000E+00  0.000E+00  0.000E+00  1.93309E+03  8.967E-02  3.000E+00  0.000E+00  0.000E+00  0.000E+00
   2   55   73    17     1    0.0000E+00  0.0000E+00   0.0000E+00  0.000E+00  0.000E+00  0.000E+00  2.04100E+03  0.000E+00  3.000E+00  1.350E+03  0.000E+00  0.000E+00
   2   54   73    17     2    0.0000E+00  0.0000E+00   0.0000E+00  0.000E+00  0.000E+00  0.000E+00  2.02900E+03  0.000E+00  3.000E+00  1.350E+03  0.000E+00  0.000E+00
   2   53   73    17     3    0.0000E+00  0.0000E+00   0.0000E+00  0.000E+00  0.000E+00  0.000E+00  2.01700E+03  0.000E+00  3.000E+00  1.350E+03  0.000E+00  0.000E+00
   2   52   73    17     4    0.0000E+00  0.0000E+00   0.0000E+00  0.000E+00  0.000E+00  0.000E+00  2.01000E+03  0.000E+00  3.000E+00  1.630E+03  0.000E+00  0.000E+00
   2   51   72    17     5    0.0000E+00  0.0000E+00   0.0000E+00  0.000E+00  0.000E+00  0.000E+00  1.99800E+03  0.000E+00  3.000E+00  1.630E+03  0.000E+00  0.000E+00
   2   50   72    17     6    0.0000E+00 -5.0138E+01   5.0138E+01  0.000E+00  0.000E+00  0.000E+00  1.97500E+03  1.275E-03  3.000E+00  1.350E+03  0.000E+00  0.000E+00
   2   49   72    17     7    5.0138E+01  0.0000E+00   5.0138E+01  0.000E+00  0.000E+00  0.000E+00  1.95600E+03  1.838E-03  3.000E+00  0.000E+00  0.000E+00  0.000E+00
   2   48   72    17     8    5.0138E+01  0.0000E+00   5.0138E+01  0.000E+00  0.000E+00  0.000E+00  1.95200E+03  1.835E-03  3.000E+00  0.000E+00  0.000E+00  0.000E+00
   2   47   72    17     9    5.0138E+01  0.0000E+00   5.0138E+01  0.000E+00  0.000E+00  0.000E+00  1.95000E+03  1.879E-03  3.000E+00  0.000E+00  0.000E+00  0.000E+00
   2   46   72    17    10    5.0138E+01  0.0000E+00   5.0138E+01  0.000E+00  0.000E+00  0.000E+00  1.94800E+03  1.938E-03  3.000E+00  0.000E+00  0.000E+00  0.000E+00
   2   45   72    17    11    5.0138E+01  0.0000E+00   5.0138E+01  0.000E+00  0.000E+00  0.000E+00  1.94400E+03  1.960E-03  3.000E+00  0.000E+00  0.000E+00  0.000E+00
   2   44   73    17    12    5.0138E+01  0.0000E+00   5.0138E+01  0.000E+00  0.000E+00  0.000E+00  1.94200E+03  1.992E-03  3.000E+00  0.000E+00  0.000E+00  0.000E+00
   2   43   73    17    13    5.0138E+01  0.0000E+00   5.0138E+01  0.000E+00  0.000E+00  0.000E+00  1.94200E+03  2.186E-03  3.000E+00  0.000E+00  0.000E+00  0.000E+00
   2   42   73    17    14    5.0138E+01  0.0000E+00   5.0138E+01  0.000E+00  0.000E+00  0.000E+00  1.94100E+03  2.236E-03  3.000E+00  0.000E+00  0.000E+00  0.000E+00
   2   34   45    18     1    5.2888E+03 -3.5465E+01   5.3243E+03  0.000E+00  0.000E+00  0.000E+00  2.01794E+03  3.785E-02  3.000E+00  1.630E+03  0.000E+00  0.000E+00
   2   34   46    18     2    5.3243E+03 -7.0895E+01   5.3952E+03  0.000E+00  0.000E+00  0.000E+00  2.01103E+03  3.474E-02  3.000E+00  1.350E+03  0.000E+00  0.000E+00
   2   34   47    18     3    5.3952E+03  5.9220E+00   5.3892E+03  0.000E+00  0.000E+00  0.000E+00  2.00703E+03  2.744E-02  3.000E+00  6.750E+02  0.000E+00  0.000E+00
   2   41   74    19     1    1.0164E+04 -2.2016E+02   1.0385E+04  0.000E+00  0.000E+00  0.000E+00  1.93806E+03  5.519E-02  3.000E+00  1.909E+03  0.000E+00  0.000E+00
   2   40   75    19     2    1.0385E+04 -4.7152E+01   1.0432E+04  0.000E+00  0.000E+00  0.000E+00  1.93406E+03  5.562E-02  3.000E+00  9.546E+02  0.000E+00  0.000E+00
   2   39   66    20     1    0.0000E+00  0.0000E+00   0.0000E+00  0.000E+00  0.000E+00  0.000E+00  1.96250E+03  0.000E+00  1.500E+00  8.148E+02  0.000E+00  0.000E+00
   2   39   67    20     2    0.0000E+00  0.0000E+00   0.0000E+00  0.000E+00  0.000E+00  0.000E+00  1.96225E+03  0.000E+00  1.500E+00  6.750E+02  0.000E+00  0.000E+00
   2   40   68    20     3    0.0000E+00  0.0000E+00   0.0000E+00  0.000E+00  0.000E+00  0.000E+00  1.96200E+03  0.000E+00  1.500E+00  9.546E+02  0.000E+00  0.000E+00
   2   41   69    20     4    0.0000E+00  0.0000E+00   0.0000E+00  0.000E+00  0.000E+00  0.000E+00  1.96175E+03  0.000E+00  1.500E+00  8.148E+02  0.000E+00  0.000E+00
   2   42   69    20     5    0.0000E+00  0.0000E+00   0.0000E+00  0.000E+00  0.000E+00  0.000E+00  1.96150E+03  0.000E+00  1.500E+00  8.148E+02  0.000E+00  0.000E+00
   2   43   70    20     6    0.0000E+00  0.0000E+00   0.0000E+00  0.000E+00  0.000E+00  0.000E+00  1.96125E+03  0.000E+00  1.500E+00  8.148E+02  0.000E+00  0.000E+00
   2   38   66    21     1    7.7160E+03 -7.1085E+01   7.7871E+03  0.000E+00  0.000E+00  0.000E+00  1.96005E+03  5.171E-02  3.000E+00  1.350E+03  0.000E+00  0.000E+00
   2   38   67    21     2    7.7871E+03  1.5236E+01   7.7719E+03  0.000E+00  0.000E+00  0.000E+00  1.95805E+03  4.957E-02  3.000E+00  1.630E+03  0.000E+00  0.000E+00
   2   39   68    21     3    7.7719E+03 -1.2602E+01   7.7845E+03  0.000E+00  0.000E+00  0.000E+00  1.95304E+03  4.453E-02  3.000E+00  1.630E+03  0.000E+00  0.000E+00
   2   39   69    21     4    7.7845E+03 -2.1049E+02   7.9950E+03  0.000E+00  0.000E+00  0.000E+00  1.94805E+03  4.724E-02  3.000E+00  1.350E+03  0.000E+00  0.000E+00
   2   39   70    21     5    7.9950E+03  6.5763E+00   7.9884E+03  0.000E+00  0.000E+00  0.000E+00  1.94604E+03  4.050E-02  3.000E+00  6.750E+02  0.000E+00  0.000E+00
   2   38   71    22     1    4.0000E+03 -5.5821E+01   4.0558E+03  0.000E+00  0.000E+00  0.000E+00  1.94556E+03  5.987E-02  3.000E+00  3.259E+02  0.000E+00  0.000E+00
   2   38   72    22     2    4.0558E+03 -3.9849E+01   4.0957E+03  0.000E+00  0.000E+00  0.000E+00  1.94506E+03  6.030E-02  3.000E+00  3.259E+02  0.000E+00  0.000E+00
   2   39   73    22     3    4.0957E+03  1.2627E+02   3.9694E+03  0.000E+00  0.000E+00  0.000E+00  1.94456E+03  5.991E-02  3.000E+00  3.259E+02  0.000E+00  0.000E+00
   2   39   74    22     4    3.9694E+03  8.1000E+01   3.8884E+03  0.000E+00  0.000E+00  0.000E+00  1.94406E+03  5.574E-02  3.000E+00  2.700E+02  8.528E+01 -4.281E+00
   2   39   75    22     5    3.8884E+03  8.1000E+01   3.8074E+03  0.000E+00  0.000E+00  0.000E+00  1.94356E+03  5.505E-02  3.000E+00  2.700E+02  8.481E+01 -3.814E+00
   2   39   76    22     6    3.8074E+03  0.0000E+00   3.8074E+03  0.000E+00  0.000E+00  0.000E+00  1.94305E+03  5.470E-02  3.000E+00  0.000E+00  0.000E+00  0.000E+00
   2   39   71    23     1    4.0149E+03 -1.8641E+02   4.2013E+03  0.000E+00  0.000E+00  0.000E+00  1.94204E+03  3.738E-02  3.000E+00  1.630E+03  0.000E+00  0.000E+00
   2   40   72    23     2    4.2013E+03 -7.3936E+01   4.2752E+03  0.000E+00  0.000E+00  0.000E+00  1.94104E+03  4.072E-02  3.000E+00  1.630E+03  0.000E+00  0.000E+00
   2   40   73    23     3    4.2752E+03 -1.7688E+02   4.4521E+03  0.000E+00  0.000E+00  0.000E+00  1.93804E+03  3.663E-02  3.000E+00  1.350E+03  0.000E+00  0.000E+00
   2   40   74    23     4    4.4521E+03 -6.9337E+01   4.5214E+03  0.000E+00  0.000E+00  0.000E+00  1.93604E+03  3.983E-02  3.000E+00  1.350E+03  0.000E+00  0.000E+00
   2   40   75    23     5    4.5214E+03 -4.6895E+01   4.5683E+03  0.000E+00  0.000E+00  0.000E+00  1.93404E+03  3.554E-02  3.000E+00  6.750E+02  0.000E+00  0.000E+00



1
  VOLUMETRIC BUDGET FOR UNSATURATED ZONE BENEATH STREAMS AT END OF TIME STEP     6 STRESS PERIOD   2
  ------------------------------------------------------------------------------------------------

    CUMULATIVE VOLUMES             L**3    RATES FOR THIS TIME STEP         L**3/T
    ------------------                     ------------------------


          STREAM LOSS =         5169.2720            STREAM LOSS =          852.1514
    CHANGE IN STORAGE =          927.0386      CHANGE IN STORAGE =          -26.2746
       RECHARGE TO GW =         4242.2334         RECHARGE TO GW =          878.4260

             TOTAL IN =         5169.2720               TOTAL IN =          878.4259

            TOTAL OUT =         5169.2720              TOTAL OUT =          878.4260

             IN - OUT =            0.0000               IN - OUT =       -6.1035E-05

  PERCENT DISCREPANCY =            0.00      PERCENT DISCREPANCY =            -0.00



 ***WARNING***NUZTOP IS 3 AND ALL LAYERS  IN ROW           39  AND COLUMN 
          76  ARE INACTIVE.
 UNSATURATED FLOW WILL NOT BE ADDED TO ANY LAYER-- SOME WATER MAY FLOW PAST
  LOWEST LAYER
 ***WARNING***NUZTOP IS 3 AND ALL LAYERS  IN ROW           40  AND COLUMN 
          76  ARE INACTIVE.
 UNSATURATED FLOW WILL NOT BE ADDED TO ANY LAYER-- SOME WATER MAY FLOW PAST
  LOWEST LAYER


UNSATURATED ZONE PACKAGE VOLUMETRIC BUDGET FOR  TIME STEP     6 STRESS PERIOD    2
  ------------------------------------------------------------------------------



     CUMULATIVE VOLUMES      L**3       RATES FOR THIS TIME STEP      L**3/T
     ------------------                 ------------------------

           IN:                                      IN:
           ---                                      ---
        INFILTRATION =       26039.6903          INFILTRATION =       0.0000E+00

          OUT:                                     OUT:
          ----                                     ----
              UZF ET =      158566.8564                UZF ET =       23991.7484
        UZF RECHARGE =      199368.6361          UZF RECHARGE =       26353.6270

            IN - OUT =     -331895.8022              IN - OUT =      -50345.3754

          STORAGE:                                 STORAGE:
          --------                                 --------
      STORAGE CHANGE =     -331031.5461        STORAGE CHANGE =      -50271.5260

 PERCENT DISCREPANCY IS DIFFERENCE BETWEEN IN-OUT MINUS CHANGE IN STORAGE
 DIVIDED BY THE AVERAGE OF IN AND OUT TIMES 100

 PERCENT DISCREPANCY =          -0.06     PERCENT DISCREPANCY =          -0.15






1
  VOLUMETRIC BUDGET FOR ENTIRE MODEL AT END OF TIME STEP    6, STRESS PERIOD   2
  ------------------------------------------------------------------------------

     CUMULATIVE VOLUMES      L**3       RATES FOR THIS TIME STEP      L**3/T
     ------------------                 ------------------------

           IN:                                      IN:
           ---                                      ---
             STORAGE     =         976.3270               STORAGE     =         307.9418
       CONSTANT HEAD     =          17.3614         CONSTANT HEAD     =       5.6488E-02
      STREAM LEAKAGE     =       28795.7969        STREAM LEAKAGE     =        3944.0747
       LAKE  SEEPAGE     =        2207.1497         LAKE  SEEPAGE     =         279.1128
        UZF RECHARGE     =      199382.1094          UZF RECHARGE     =       26353.6270
               GW ET     =           0.0000                 GW ET     =           0.0000
     SURFACE LEAKAGE     =           0.0000       SURFACE LEAKAGE     =           0.0000

                TOTAL IN =      231378.7500                  TOTAL IN =       30884.8125

          OUT:                                     OUT:
          ----                                     ----
             STORAGE     =       98018.7734               STORAGE     =       13347.2344
       CONSTANT HEAD     =         440.4694         CONSTANT HEAD     =          64.6421
      STREAM LEAKAGE     =       77079.4922        STREAM LEAKAGE     =       11879.5156
       LAKE  SEEPAGE     =       18474.2969         LAKE  SEEPAGE     =        2646.0698
        UZF RECHARGE     =           0.0000          UZF RECHARGE     =           0.0000
               GW ET     =       35874.8711                 GW ET     =        2674.8804
     SURFACE LEAKAGE     =        1900.9467       SURFACE LEAKAGE     =         341.7236

               TOTAL OUT =      231788.8438                 TOTAL OUT =       30954.0664

                IN - OUT =        -410.0938                  IN - OUT =         -69.2539

     PERCENT DISCREPANCY =          -0.18         PERCENT DISCREPANCY =          -0.22






         TIME SUMMARY AT END OF TIME STEP    6 IN STRESS PERIOD    2
                    SECONDS     MINUTES      HOURS       DAYS        YEARS
                    -----------------------------------------------------------
   TIME STEP LENGTH  86400.      1440.0      24.000      1.0000     2.73785E-03
 STRESS PERIOD TIME 5.18400E+05  8640.0      144.00      6.0000     1.64271E-02
         TOTAL TIME 6.04800E+05  10080.      168.00      7.0000     1.91650E-02
1
                                                   Max.-Head-Change                         Max.-Flux-Residual
  Residual-Control   Outer-Iter.   Inner-Iter.     Column Row Layer    Maximum-Head-Change  Column Row Layer    Maximum-Flux-Residual          L2-NORM 
          0                 1           5            51   56     2       0.3130360670E+01      68   26    2         0.2095648915E+03      0.5203527163E+03
          0                 2           4            51   58     2       0.2230656500E+01      51   58    2         0.5634324107E+02      0.1258784293E+03
          0                 3           4            51   58     2      -0.1396198261E+00      74   39    2         0.9192008494E+01      0.2787240736E+02
          0                 4           3             9   53     2       0.2718416540E-01      74   39    2         0.3222573118E+01      0.7858481635E+01
          0                 5           3             9   53     2       0.7155696244E-02      74   39    2         0.1129691265E+01      0.2645278901E+01
          0                 6           2             9   53     2       0.1872095561E-02      74   39    2         0.3960511548E+00      0.9520122529E+00
          0                 7           1             9   53     2       0.4749849515E-03      74   39    2         0.1386967120E+00      0.3605404491E+00
          0                 8           1             9   53     3       0.1575390280E-03       3   59    2         0.5232683482E-01      0.1428485239E+00
          0                 9           1             9   53     3       0.6838954620E-04       3   59    2         0.2284300729E-01      0.5872748053E-01

    ------------------------------------------------
       NWT REQUIRED            9 OUTER ITERATIONS 
       AND A TOTAL OF         24 INNER ITERATIONS.
    ------------------------------------------------
                                                   Max.-Head-Change                         Max.-Flux-Residual
  Residual-Control   Outer-Iter.   Inner-Iter.     Column Row Layer    Maximum-Head-Change  Column Row Layer    Maximum-Flux-Residual          L2-NORM 
          0                 1           3            10   53     2      -0.7351358939E-01      63   38    2         0.1215683290E+02      0.1686102231E+02
          0                 2           3            10   53     2       0.5717704674E-02      64   38    2         0.3665750983E+01      0.4252897477E+01
          0                 3           4            10   53     2       0.6073755133E-01      10   53    2         0.6343446008E+01      0.6361514039E+01
          0                 4           3            10   53     2       0.6270999514E-02      10   53    2         0.6342523102E+00      0.8799368462E+00
          0                 5           1            10   53     2       0.6718165394E-03      11   53    2         0.1851773664E+00      0.2799563755E+00
          0                 6           1             9   53     3       0.2010621782E-03      11   53    2         0.6634929724E-01      0.1021810002E+00
          0                 7           1             9   53     3       0.5028807595E-04      11   53    2         0.2286131531E-01      0.3739059728E-01

    ------------------------------------------------
       NWT REQUIRED            7 OUTER ITERATIONS 
       AND A TOTAL OF         16 INNER ITERATIONS.
    ------------------------------------------------
                                                   Max.-Head-Change                         Max.-Flux-Residual
  Residual-Control   Outer-Iter.   Inner-Iter.     Column Row Layer    Maximum-Head-Change  Column Row Layer    Maximum-Flux-Residual          L2-NORM 
          0                 1           4            10   53     2      -0.7352613338E-01      10   53    2        -0.6280073082E+01      0.6281091965E+01
          0                 2           3            10   53     2       0.5722324762E-02      10   53    2         0.6245206218E+00      0.1003529421E+01
          0                 3           4            10   53     2       0.6073831118E-01      10   53    2         0.6343475927E+01      0.6349141737E+01
          0                 4           3            10   53     2       0.6271109941E-02      10   53    2         0.6342556562E+00      0.8801838736E+00
          0                 5           1            10   53     2       0.6716548680E-03      11   53    2         0.1852108174E+00      0.2820781986E+00
          0                 6           1             9   53     3       0.2009108159E-03      11   53    2         0.6639213206E-01      0.1043687418E+00
          0                 7           1             9   53     3       0.5034491193E-04      11   53    2         0.2290226139E-01      0.3993030214E-01

    ------------------------------------------------
       NWT REQUIRED            7 OUTER ITERATIONS 
       AND A TOTAL OF         17 INNER ITERATIONS.
    ------------------------------------------------

 OUTPUT CONTROL FOR STRESS PERIOD    2   TIME STEP    7
    PRINT BUDGET



 STREAM LISTING     PERIOD      2   STEP        7

 LAYER ROW COL. STREAM  RCH.   FLOW INTO    STREAM     FLOW OUT OF   OVRLND.    DIRECT     STREAM      STREAM      STREAM     STREAM  STREAMBED   FLOW TO   CHNG. UNSAT. 
                SEG.NO.  NO.   STRM. RCH.    LOSS       STRM. RCH.   RUNOFF     PRECIP       ET         HEAD        DEPTH      WIDTH  CONDCTNC.   WAT. TAB.

   2   18   62     1     1    0.0000E+00  0.0000E+00   0.0000E+00  0.000E+00  0.000E+00  0.000E+00  2.07300E+03  0.000E+00  3.000E+00  1.909E+03  0.000E+00  0.000E+00
   2   19   63     1     2    0.0000E+00 -4.7961E+01   4.7961E+01  0.000E+00  0.000E+00  0.000E+00  2.06300E+03  1.200E-03  3.000E+00  1.909E+03  0.000E+00  0.000E+00
   2   20   64     1     3    4.7961E+01 -7.3975E+01   1.2194E+02  0.000E+00  0.000E+00  0.000E+00  2.05400E+03  2.805E-03  3.000E+00  1.630E+03  0.000E+00  0.000E+00
   2   21   64     1     4    1.2194E+02 -7.5393E+01   1.9733E+02  0.000E+00  0.000E+00  0.000E+00  2.05101E+03  5.042E-03  3.000E+00  1.630E+03  0.000E+00  0.000E+00
   2   22   65     1     5    1.9733E+02 -8.3874E+00   2.0572E+02  0.000E+00  0.000E+00  0.000E+00  2.04800E+03  4.939E-03  3.000E+00  9.546E+02  0.000E+00  0.000E+00
   2   20   66     2     1    0.0000E+00  0.0000E+00   0.0000E+00  0.000E+00  0.000E+00  0.000E+00  2.05300E+03  0.000E+00  3.000E+00  1.909E+03  0.000E+00  0.000E+00
   2   21   65     2     2    0.0000E+00  0.0000E+00   0.0000E+00  0.000E+00  0.000E+00  0.000E+00  2.05100E+03  0.000E+00  3.000E+00  1.630E+03  0.000E+00  0.000E+00
   2   22   65     2     3    0.0000E+00 -8.9584E+00   8.9584E+00  0.000E+00  0.000E+00  0.000E+00  2.04800E+03  4.535E-04  3.000E+00  6.750E+02  0.000E+00  0.000E+00
   2   22   65     3     1    2.1467E+02 -6.1172E+00   2.2079E+02  0.000E+00  0.000E+00  0.000E+00  2.04800E+03  4.663E-03  3.000E+00  6.750E+02  0.000E+00  0.000E+00
   2   23   65     3     2    2.2079E+02 -7.0033E+01   2.9082E+02  0.000E+00  0.000E+00  0.000E+00  2.04501E+03  8.237E-03  3.000E+00  1.630E+03  0.000E+00  0.000E+00
   2   24   66     3     3    2.9082E+02 -1.3798E+00   2.9220E+02  0.000E+00  0.000E+00  0.000E+00  2.04531E+03  3.103E-01  3.000E+00  1.909E+03  0.000E+00  0.000E+00
   2   25   67     3     4    2.9220E+02  4.1344E+01   2.5086E+02  0.000E+00  0.000E+00  0.000E+00  2.04501E+03  8.952E-03  3.000E+00  1.909E+03  0.000E+00  0.000E+00
   2   26   68     3     5    2.5086E+02  2.5086E+02   0.0000E+00  0.000E+00  0.000E+00  0.000E+00  2.04200E+03  1.680E-03  3.000E+00  1.630E+03  0.000E+00  0.000E+00
   2   27   68     3     6    0.0000E+00  0.0000E+00   0.0000E+00  0.000E+00  0.000E+00  0.000E+00  2.04100E+03  0.000E+00  3.000E+00  1.630E+03  0.000E+00  0.000E+00
   2   28   69     3     7    0.0000E+00  0.0000E+00   0.0000E+00  0.000E+00  0.000E+00  0.000E+00  2.03600E+03  0.000E+00  3.000E+00  1.630E+03  0.000E+00  0.000E+00
   2   29   69     3     8    0.0000E+00  0.0000E+00   0.0000E+00  0.000E+00  0.000E+00  0.000E+00  2.02900E+03  0.000E+00  3.000E+00  1.350E+03  0.000E+00  0.000E+00
   2   30   69     3     9    0.0000E+00  0.0000E+00   0.0000E+00  0.000E+00  0.000E+00  0.000E+00  2.02300E+03  0.000E+00  3.000E+00  1.630E+03  0.000E+00  0.000E+00
   2   31   70     3    10    0.0000E+00  0.0000E+00   0.0000E+00  0.000E+00  0.000E+00  0.000E+00  2.01100E+03  0.000E+00  3.000E+00  1.630E+03  0.000E+00  0.000E+00
   2   32   70     3    11    0.0000E+00 -5.8141E+01   5.8141E+01  0.000E+00  0.000E+00  0.000E+00  2.00500E+03  1.573E-03  3.000E+00  1.350E+03  0.000E+00  0.000E+00
   2   33   70     3    12    5.8141E+01  5.8141E+01   0.0000E+00  0.000E+00  0.000E+00  0.000E+00  2.00300E+03  4.379E-04  3.000E+00  1.630E+03  5.956E+01 -1.417E+00
   2   34   69     3    13    0.0000E+00 -1.3418E+01   1.3418E+01  0.000E+00  0.000E+00  0.000E+00  1.98600E+03  4.646E-04  3.000E+00  1.630E+03  0.000E+00  0.000E+00
   2   35   69     3    14    1.3418E+01 -1.1898E+02   1.3240E+02  0.000E+00  0.000E+00  0.000E+00  1.97300E+03  2.107E-03  3.000E+00  1.350E+03  0.000E+00  0.000E+00
   2   36   69     3    15    1.3240E+02  2.2162E+01   1.1024E+02  0.000E+00  0.000E+00  0.000E+00  1.96700E+03  3.134E-03  3.000E+00  1.350E+03  0.000E+00  0.000E+00
   2   37   69     3    16    1.1024E+02  1.1024E+02   0.0000E+00  0.000E+00  0.000E+00  0.000E+00  1.95900E+03  6.658E-04  3.000E+00  1.350E+03  0.000E+00  0.000E+00
   2   38   69     3    17    0.0000E+00  0.0000E+00   0.0000E+00  0.000E+00  0.000E+00  0.000E+00  1.95300E+03  0.000E+00  3.000E+00  1.630E+03  0.000E+00  0.000E+00
   2   39   70     3    18    0.0000E+00 -2.8907E+01   2.8907E+01  0.000E+00  0.000E+00  0.000E+00  1.94600E+03  8.473E-04  3.000E+00  9.546E+02  0.000E+00  0.000E+00
   2   25   49     4     1    0.0000E+00 -1.3177E+02   1.3177E+02  0.000E+00  0.000E+00  0.000E+00  2.03500E+03  2.135E-03  3.000E+00  1.909E+03  0.000E+00  0.000E+00
   2   26   50     4     2    1.3177E+02 -9.2031E+01   2.2380E+02  0.000E+00  0.000E+00  0.000E+00  2.02600E+03  4.202E-03  3.000E+00  1.909E+03  0.000E+00  0.000E+00
   2   27   51     4     3    2.2380E+02 -8.1279E+01   3.0508E+02  0.000E+00  0.000E+00  0.000E+00  2.01901E+03  5.544E-03  3.000E+00  1.630E+03  0.000E+00  0.000E+00
   2   28   51     4     4    3.0508E+02 -7.5099E+01   3.8017E+02  0.000E+00  0.000E+00  0.000E+00  2.01401E+03  6.840E-03  3.000E+00  1.630E+03  0.000E+00  0.000E+00
   2   29   52     4     5    3.8017E+02 -6.9122E+01   4.4930E+02  0.000E+00  0.000E+00  0.000E+00  2.00901E+03  7.670E-03  3.000E+00  1.630E+03  0.000E+00  0.000E+00
   2   30   52     4     6    4.4930E+02 -5.3509E+01   5.0281E+02  0.000E+00  0.000E+00  0.000E+00  2.00401E+03  7.875E-03  3.000E+00  1.350E+03  0.000E+00  0.000E+00
   2   31   52     4     7    5.0281E+02 -7.6423E+01   5.7923E+02  0.000E+00  0.000E+00  0.000E+00  1.99901E+03  9.463E-03  3.000E+00  1.350E+03  0.000E+00  0.000E+00
   2   32   52     4     8    5.7923E+02  3.3677E+00   5.7586E+02  0.000E+00  0.000E+00  0.000E+00  1.99701E+03  1.000E-02  3.000E+00  1.630E+03  0.000E+00  0.000E+00
   2   33   53     4     9    5.7586E+02  6.0158E+00   5.6984E+02  0.000E+00  0.000E+00  0.000E+00  1.99101E+03  9.764E-03  3.000E+00  1.909E+03  0.000E+00  0.000E+00
   2   34   54     4    10    5.6984E+02  1.5539E+02   4.1445E+02  0.000E+00  0.000E+00  0.000E+00  1.98701E+03  9.200E-03  3.000E+00  1.909E+03  0.000E+00  0.000E+00
   2   35   55     4    11    4.1445E+02  9.7776E+01   3.1668E+02  0.000E+00  0.000E+00  0.000E+00  1.98201E+03  6.911E-03  3.000E+00  1.630E+03  1.011E+02 -3.358E+00
   2   36   55     4    12    3.1668E+02 -8.5065E+01   4.0174E+02  0.000E+00  0.000E+00  0.000E+00  1.97601E+03  6.012E-03  3.000E+00  6.750E+02  0.000E+00  0.000E+00
   2   35   37     5     1    4.5802E+03  0.0000E+00   4.5802E+03  0.000E+00  0.000E+00  0.000E+00  2.05402E+03  2.398E-02  3.000E+00  0.000E+00  0.000E+00  0.000E+00
   2   34   38     5     2    4.5802E+03  0.0000E+00   4.5802E+03  0.000E+00  0.000E+00  0.000E+00  2.04003E+03  2.953E-02  3.000E+00  0.000E+00  0.000E+00  0.000E+00
   2   33   39     5     3    4.5802E+03  0.0000E+00   4.5802E+03  0.000E+00  0.000E+00  0.000E+00  2.03204E+03  3.508E-02  3.000E+00  0.000E+00  0.000E+00  0.000E+00
   2   32   40     5     4    4.5802E+03  0.0000E+00   4.5802E+03  0.000E+00  0.000E+00  0.000E+00  2.03003E+03  3.465E-02  3.000E+00  0.000E+00  0.000E+00  0.000E+00
   2   32   41     5     5    4.5802E+03  0.0000E+00   4.5802E+03  0.000E+00  0.000E+00  0.000E+00  2.02603E+03  2.900E-02  3.000E+00  0.000E+00  0.000E+00  0.000E+00
   2   32   42     5     6    4.5802E+03  0.0000E+00   4.5802E+03  0.000E+00  0.000E+00  0.000E+00  2.02203E+03  3.409E-02  3.000E+00  0.000E+00  0.000E+00  0.000E+00
   2   32   43     5     7    4.5802E+03  0.0000E+00   4.5802E+03  0.000E+00  0.000E+00  0.000E+00  2.02004E+03  3.779E-02  3.000E+00  0.000E+00  0.000E+00  0.000E+00
   2   33   44     5     8    4.5802E+03  0.0000E+00   4.5802E+03  0.000E+00  0.000E+00  0.000E+00  2.01904E+03  3.783E-02  3.000E+00  0.000E+00  0.000E+00  0.000E+00
   2   34   47     6     1    5.4750E+03  4.4759E+00   5.4705E+03  0.000E+00  0.000E+00  0.000E+00  2.00703E+03  2.559E-02  3.000E+00  6.750E+02  0.000E+00  0.000E+00
   2   34   48     6     2    5.4705E+03 -1.2678E+02   5.5973E+03  0.000E+00  0.000E+00  0.000E+00  2.00103E+03  3.356E-02  3.000E+00  1.630E+03  0.000E+00  0.000E+00
   2   35   49     6     3    5.5973E+03 -2.6024E+02   5.8575E+03  0.000E+00  0.000E+00  0.000E+00  1.99404E+03  3.602E-02  3.000E+00  1.630E+03  0.000E+00  0.000E+00
   2   35   50     6     4    5.8575E+03 -1.8921E+02   6.0467E+03  0.000E+00  0.000E+00  0.000E+00  1.99004E+03  4.413E-02  3.000E+00  1.350E+03  0.000E+00  0.000E+00
   2   35   51     6     5    6.0467E+03  2.3225E+01   6.0235E+03  0.000E+00  0.000E+00  0.000E+00  1.98904E+03  4.458E-02  3.000E+00  1.630E+03  0.000E+00  0.000E+00
   2   36   52     6     6    6.0235E+03 -1.1769E+02   6.1412E+03  0.000E+00  0.000E+00  0.000E+00  1.98404E+03  3.966E-02  3.000E+00  1.630E+03  0.000E+00  0.000E+00
   2   36   53     6     7    6.1412E+03 -2.5490E+02   6.3961E+03  0.000E+00  0.000E+00  0.000E+00  1.98005E+03  5.150E-02  3.000E+00  1.630E+03  0.000E+00  0.000E+00
   2   37   54     6     8    6.3961E+03 -4.3822E+01   6.4399E+03  0.000E+00  0.000E+00  0.000E+00  1.98005E+03  5.478E-02  3.000E+00  1.909E+03  0.000E+00  0.000E+00
   2   36   55     6     9    6.4399E+03 -8.6074E+01   6.5260E+03  0.000E+00  0.000E+00  0.000E+00  1.97604E+03  4.187E-02  3.000E+00  9.546E+02  0.000E+00  0.000E+00
   2   36   34     7     1    1.7935E+03 -5.0540E+01   1.8440E+03  0.000E+00  0.000E+00  0.000E+00  2.07701E+03  1.252E-02  3.000E+00  9.546E+02  0.000E+00  0.000E+00
   2   35   35     7     2    1.8440E+03 -1.0756E+02   1.9516E+03  0.000E+00  0.000E+00  0.000E+00  2.06702E+03  1.692E-02  3.000E+00  1.630E+03  0.000E+00  0.000E+00
   2   35   36     7     3    1.9516E+03  2.4273E+01   1.9273E+03  0.000E+00  0.000E+00  0.000E+00  2.06202E+03  1.691E-02  3.000E+00  1.350E+03  0.000E+00  0.000E+00
   2   35   37     7     4    1.9273E+03 -6.1916E+01   1.9892E+03  0.000E+00  0.000E+00  0.000E+00  2.05401E+03  1.298E-02  3.000E+00  6.750E+02  0.000E+00  0.000E+00
   2   52   49     8     1    0.0000E+00 -1.9327E+02   1.9327E+02  0.000E+00  0.000E+00  0.000E+00  2.12100E+03  2.769E-03  3.000E+00  1.909E+03  0.000E+00  0.000E+00
   2   51   48     8     2    1.9327E+02 -2.3661E+02   4.2988E+02  0.000E+00  0.000E+00  0.000E+00  2.11701E+03  8.919E-03  3.000E+00  1.909E+03  0.000E+00  0.000E+00
   2   50   47     8     3    4.2988E+02  1.9061E+02   2.3927E+02  0.000E+00  0.000E+00  0.000E+00  2.11701E+03  7.210E-03  3.000E+00  1.630E+03  0.000E+00  0.000E+00
   2   49   47     8     4    2.3927E+02 -2.6127E+02   5.0054E+02  0.000E+00  0.000E+00  0.000E+00  2.10901E+03  7.162E-03  3.000E+00  1.630E+03  0.000E+00  0.000E+00
   2   48   46     8     5    5.0054E+02  1.5269E+01   4.8527E+02  0.000E+00  0.000E+00  0.000E+00  2.10701E+03  1.120E-02  3.000E+00  1.630E+03  0.000E+00  0.000E+00
   2   47   46     8     6    4.8527E+02  1.7319E+02   3.1209E+02  0.000E+00  0.000E+00  0.000E+00  2.10501E+03  9.320E-03  3.000E+00  1.350E+03  0.000E+00  0.000E+00
   2   46   46     8     7    3.1209E+02  8.1000E+01   2.3109E+02  0.000E+00  0.000E+00  0.000E+00  2.10301E+03  6.554E-03  3.000E+00  1.350E+03  8.367E+01 -2.667E+00
   2   45   46     8     8    2.3109E+02  8.1000E+01   1.5009E+02  0.000E+00  0.000E+00  0.000E+00  2.09900E+03  4.305E-03  3.000E+00  1.350E+03  8.431E+01 -3.312E+00
   2   44   46     8     9    1.5009E+02  8.1000E+01   6.9086E+01  0.000E+00  0.000E+00  0.000E+00  2.09100E+03  2.691E-03  3.000E+00  1.350E+03  8.429E+01 -3.289E+00
   2   43   46     8    10    6.9086E+01  6.9086E+01   0.0000E+00  0.000E+00  0.000E+00  0.000E+00  2.08000E+03  4.590E-04  3.000E+00  1.350E+03  6.845E+01  6.352E-01
   2   42   46     8    11    0.0000E+00  0.0000E+00   0.0000E+00  0.000E+00  0.000E+00  0.000E+00  2.07200E+03  0.000E+00  3.000E+00  1.630E+03  0.000E+00  0.000E+00
   2   41   45     8    12    0.0000E+00  0.0000E+00   0.0000E+00  0.000E+00  0.000E+00  0.000E+00  2.06000E+03  0.000E+00  3.000E+00  1.630E+03  0.000E+00  0.000E+00
   2   40   45     8    13    0.0000E+00  0.0000E+00   0.0000E+00  0.000E+00  0.000E+00  0.000E+00  2.05400E+03  0.000E+00  3.000E+00  1.350E+03  0.000E+00  0.000E+00
   2   39   45     8    14    0.0000E+00  0.0000E+00   0.0000E+00  0.000E+00  0.000E+00  0.000E+00  2.04600E+03  0.000E+00  3.000E+00  1.350E+03  0.000E+00  0.000E+00
   2   38   45     8    15    0.0000E+00  0.0000E+00   0.0000E+00  0.000E+00  0.000E+00  0.000E+00  2.03500E+03  0.000E+00  3.000E+00  1.350E+03  0.000E+00  0.000E+00
   2   37   45     8    16    0.0000E+00  0.0000E+00   0.0000E+00  0.000E+00  0.000E+00  0.000E+00  2.02700E+03  0.000E+00  3.000E+00  1.630E+03  0.000E+00  0.000E+00
   2   36   46     8    17    0.0000E+00  0.0000E+00   0.0000E+00  0.000E+00  0.000E+00  0.000E+00  2.02100E+03  0.000E+00  3.000E+00  1.630E+03  0.000E+00  0.000E+00
   2   35   46     8    18    0.0000E+00  0.0000E+00   0.0000E+00  0.000E+00  0.000E+00  0.000E+00  2.01400E+03  0.000E+00  3.000E+00  1.630E+03  0.000E+00  0.000E+00
   2   34   47     8    19    0.0000E+00 -1.7528E+01   1.7528E+01  0.000E+00  0.000E+00  0.000E+00  2.00700E+03  5.969E-04  3.000E+00  9.546E+02  0.000E+00  0.000E+00
   2   37   26     9     1    0.0000E+00  0.0000E+00   0.0000E+00  0.000E+00  0.000E+00  0.000E+00  2.14700E+03  0.000E+00  3.000E+00  1.350E+03  0.000E+00  0.000E+00
   2   37   27     9     2    0.0000E+00 -3.7415E+01   3.7415E+01  0.000E+00  0.000E+00  0.000E+00  2.13400E+03  8.915E-04  3.000E+00  1.350E+03  0.000E+00  0.000E+00
   2   37   28     9     3    3.7415E+01 -1.2204E+02   1.5946E+02  0.000E+00  0.000E+00  0.000E+00  2.12500E+03  2.670E-03  3.000E+00  1.630E+03  0.000E+00  0.000E+00
   2   36   29     9     4    1.5946E+02  3.7338E+01   1.2212E+02  0.000E+00  0.000E+00  0.000E+00  2.11500E+03  3.363E-03  3.000E+00  1.630E+03  0.000E+00  0.000E+00
   2   36   30     9     5    1.2212E+02 -6.5499E+01   1.8762E+02  0.000E+00  0.000E+00  0.000E+00  2.10700E+03  3.424E-03  3.000E+00  1.350E+03  0.000E+00  0.000E+00
   2   36   31     9     6    1.8762E+02 -1.8894E+02   3.7656E+02  0.000E+00  0.000E+00  0.000E+00  2.09800E+03  4.996E-03  3.000E+00  1.350E+03  0.000E+00  0.000E+00
   2   36   32     9     7    3.7656E+02 -1.3741E+02   5.1397E+02  0.000E+00  0.000E+00  0.000E+00  2.09101E+03  6.839E-03  3.000E+00  1.350E+03  0.000E+00  0.000E+00
   2   36   33     9     8    5.1397E+02 -1.3850E+02   6.5247E+02  0.000E+00  0.000E+00  0.000E+00  2.08401E+03  8.041E-03  3.000E+00  1.350E+03  0.000E+00  0.000E+00
   2   36   34     9     9    6.5247E+02 -3.9659E+01   6.9213E+02  0.000E+00  0.000E+00  0.000E+00  2.07701E+03  6.710E-03  3.000E+00  6.750E+02  0.000E+00  0.000E+00
   2   58   37    10     1    0.0000E+00  0.0000E+00   0.0000E+00  0.000E+00  0.000E+00  0.000E+00  2.15000E+03  0.000E+00  3.000E+00  1.350E+03  0.000E+00  0.000E+00
   2   57   37    10     2    0.0000E+00 -7.2292E+01   7.2292E+01  0.000E+00  0.000E+00  0.000E+00  2.14700E+03  1.975E-03  3.000E+00  1.630E+03  0.000E+00  0.000E+00
   2   56   38    10     3    7.2292E+01 -5.1628E+00   7.7455E+01  0.000E+00  0.000E+00  0.000E+00  2.14300E+03  2.835E-03  3.000E+00  1.630E+03  0.000E+00  0.000E+00
   2   55   38    10     4    7.7455E+01 -1.7561E+02   2.5306E+02  0.000E+00  0.000E+00  0.000E+00  2.13800E+03  4.463E-03  3.000E+00  1.350E+03  0.000E+00  0.000E+00
   2   54   38    10     5    2.5306E+02 -1.1708E+02   3.7014E+02  0.000E+00  0.000E+00  0.000E+00  2.13501E+03  7.118E-03  3.000E+00  1.350E+03  0.000E+00  0.000E+00
   2   53   38    10     6    3.7014E+02 -1.0957E+02   4.7971E+02  0.000E+00  0.000E+00  0.000E+00  2.13201E+03  8.574E-03  3.000E+00  1.350E+03  0.000E+00  0.000E+00
   2   52   38    10     7    4.7971E+02 -1.6768E+02   6.4740E+02  0.000E+00  0.000E+00  0.000E+00  2.12901E+03  1.214E-02  3.000E+00  1.630E+03  0.000E+00  0.000E+00
   2   51   39    10     8    6.4740E+02  1.1778E+01   6.3562E+02  0.000E+00  0.000E+00  0.000E+00  2.12801E+03  1.312E-02  3.000E+00  1.630E+03  0.000E+00  0.000E+00
   2   50   39    10     9    6.3562E+02 -8.6241E+01   7.2186E+02  0.000E+00  0.000E+00  0.000E+00  2.12501E+03  1.147E-02  3.000E+00  1.630E+03  0.000E+00  0.000E+00
   2   49   38    10    10    7.2186E+02 -1.5659E+02   8.7844E+02  0.000E+00  0.000E+00  0.000E+00  2.12101E+03  1.328E-02  3.000E+00  1.909E+03  0.000E+00  0.000E+00
   2   48   37    10    11    8.7844E+02  1.7743E+01   8.6070E+02  0.000E+00  0.000E+00  0.000E+00  2.11801E+03  1.187E-02  3.000E+00  1.909E+03  0.000E+00  0.000E+00
   2   47   36    10    12    8.6070E+02 -3.4099E+02   1.2017E+03  0.000E+00  0.000E+00  0.000E+00  2.10901E+03  1.254E-02  3.000E+00  1.630E+03  0.000E+00  0.000E+00
   2   46   36    10    13    1.2017E+03 -1.3486E+02   1.3366E+03  0.000E+00  0.000E+00  0.000E+00  2.10602E+03  1.578E-02  3.000E+00  1.350E+03  0.000E+00  0.000E+00
   2   45   36    10    14    1.3366E+03 -1.6964E+02   1.5062E+03  0.000E+00  0.000E+00  0.000E+00  2.10202E+03  1.689E-02  3.000E+00  1.350E+03  0.000E+00  0.000E+00
   2   44   36    10    15    1.5062E+03 -1.0004E+02   1.6062E+03  0.000E+00  0.000E+00  0.000E+00  2.09902E+03  1.868E-02  3.000E+00  1.350E+03  0.000E+00  0.000E+00
   2   43   36    10    16    1.6062E+03 -2.0457E+01   1.6267E+03  0.000E+00  0.000E+00  0.000E+00  2.09602E+03  1.791E-02  3.000E+00  1.630E+03  0.000E+00  0.000E+00
   2   42   37    10    17    1.6267E+03  1.7586E+02   1.4508E+03  0.000E+00  0.000E+00  0.000E+00  2.09001E+03  1.463E-02  3.000E+00  1.630E+03  0.000E+00  0.000E+00
   2   41   37    10    18    1.4508E+03 -2.6421E+02   1.7150E+03  0.000E+00  0.000E+00  0.000E+00  2.08001E+03  1.406E-02  3.000E+00  1.350E+03  0.000E+00  0.000E+00
   2   40   37    10    19    1.7150E+03 -3.2691E+02   2.0420E+03  0.000E+00  0.000E+00  0.000E+00  2.07402E+03  1.960E-02  3.000E+00  1.630E+03  0.000E+00  0.000E+00
   2   39   38    10    20    2.0420E+03 -2.9814E+01   2.0718E+03  0.000E+00  0.000E+00  0.000E+00  2.07102E+03  2.231E-02  3.000E+00  1.630E+03  0.000E+00  0.000E+00
   2   38   38    10    21    2.0718E+03  2.4111E+01   2.0477E+03  0.000E+00  0.000E+00  0.000E+00  2.06702E+03  2.007E-02  3.000E+00  1.630E+03  0.000E+00  0.000E+00
   2   37   37    10    22    2.0477E+03 -2.8699E+02   2.3346E+03  0.000E+00  0.000E+00  0.000E+00  2.06102E+03  2.082E-02  3.000E+00  1.630E+03  0.000E+00  0.000E+00
   2   36   37    10    23    2.3346E+03 -1.9714E+02   2.5318E+03  0.000E+00  0.000E+00  0.000E+00  2.05702E+03  2.332E-02  3.000E+00  1.350E+03  0.000E+00  0.000E+00
   2   35   37    10    24    2.5318E+03 -5.9160E+01   2.5910E+03  0.000E+00  0.000E+00  0.000E+00  2.05402E+03  1.706E-02  3.000E+00  6.750E+02  0.000E+00  0.000E+00
   2   36   55    11     1    6.9277E+03 -6.5097E+01   6.9928E+03  0.000E+00  0.000E+00  0.000E+00  1.97604E+03  3.559E-02  3.000E+00  6.750E+02  0.000E+00  0.000E+00
   2   36   56    11     2    6.9928E+03 -1.1200E+02   7.1048E+03  0.000E+00  0.000E+00  0.000E+00  1.97506E+03  6.024E-02  3.000E+00  1.630E+03  0.000E+00  0.000E+00
   2   37   57    11     3    7.1048E+03 -1.1674E+02   7.2216E+03  0.000E+00  0.000E+00  0.000E+00  1.97306E+03  6.083E-02  3.000E+00  1.630E+03  0.000E+00  0.000E+00
   2   37   58    11     4    7.2216E+03 -6.8719E+01   7.2903E+03  0.000E+00  0.000E+00  0.000E+00  1.97208E+03  8.055E-02  3.000E+00  1.350E+03  0.000E+00  0.000E+00
   2   37   59    11     5    7.2903E+03  4.9984E+01   7.2403E+03  0.000E+00  0.000E+00  0.000E+00  1.97207E+03  6.548E-02  3.000E+00  1.350E+03  0.000E+00  0.000E+00
   2   37   60    11     6    7.2403E+03 -3.9802E+01   7.2801E+03  0.000E+00  0.000E+00  0.000E+00  1.97005E+03  5.261E-02  3.000E+00  1.630E+03  0.000E+00  0.000E+00
   2   38   61    11     7    7.2801E+03 -1.4823E+02   7.4283E+03  0.000E+00  0.000E+00  0.000E+00  1.96705E+03  4.792E-02  3.000E+00  1.630E+03  0.000E+00  0.000E+00
   2   38   62    11     8    7.4283E+03 -1.0268E+02   7.5310E+03  0.000E+00  0.000E+00  0.000E+00  1.96304E+03  4.396E-02  3.000E+00  6.750E+02  0.000E+00  0.000E+00
   2   51   11    12     1    0.0000E+00 -3.7618E+02   3.7618E+02  0.000E+00  0.000E+00  0.000E+00  2.38700E+03  3.951E-03  3.000E+00  1.909E+03  0.000E+00  0.000E+00
   2   50   12    12     2    3.7618E+02 -5.5230E+01   4.3141E+02  0.000E+00  0.000E+00  0.000E+00  2.37501E+03  5.958E-03  3.000E+00  1.630E+03  0.000E+00  0.000E+00
   2   49   12    12     3    4.3141E+02 -3.7547E+02   8.0687E+02  0.000E+00  0.000E+00  0.000E+00  2.36501E+03  8.047E-03  3.000E+00  1.630E+03  0.000E+00  0.000E+00
   2   48   13    12     4    8.0687E+02 -1.6266E+02   9.6954E+02  0.000E+00  0.000E+00  0.000E+00  2.35601E+03  1.073E-02  3.000E+00  1.630E+03  0.000E+00  0.000E+00
   2   48   14    12     5    9.6954E+02 -1.6494E+02   1.1345E+03  0.000E+00  0.000E+00  0.000E+00  2.35001E+03  1.164E-02  3.000E+00  1.630E+03  0.000E+00  0.000E+00
   2   47   15    12     6    1.1345E+03 -1.6348E+02   1.2980E+03  0.000E+00  0.000E+00  0.000E+00  2.34001E+03  1.295E-02  3.000E+00  1.630E+03  0.000E+00  0.000E+00
   2   47   16    12     7    1.2980E+03 -1.3702E+02   1.4350E+03  0.000E+00  0.000E+00  0.000E+00  2.33502E+03  1.524E-02  3.000E+00  1.630E+03  0.000E+00  0.000E+00
   2   46   17    12     8    1.4350E+03  7.0517E+01   1.3645E+03  0.000E+00  0.000E+00  0.000E+00  2.32901E+03  1.439E-02  3.000E+00  1.630E+03  0.000E+00  0.000E+00
   2   46   18    12     9    1.3645E+03  1.5437E+02   1.2101E+03  0.000E+00  0.000E+00  0.000E+00  2.32101E+03  1.114E-02  3.000E+00  1.350E+03  0.000E+00  0.000E+00
   2   46   19    12    10    1.2101E+03 -4.4828E+02   1.6584E+03  0.000E+00  0.000E+00  0.000E+00  2.30601E+03  1.351E-02  3.000E+00  1.350E+03  0.000E+00  0.000E+00
   2   46   20    12    11    1.6584E+03  7.6109E+02   8.9728E+02  0.000E+00  0.000E+00  0.000E+00  2.30601E+03  1.063E-02  3.000E+00  1.630E+03  0.000E+00  0.000E+00
   2   45   21    12    12    8.9728E+02 -3.1465E+02   1.2119E+03  0.000E+00  0.000E+00  0.000E+00  2.27401E+03  8.398E-03  3.000E+00  1.909E+03  0.000E+00  0.000E+00
   2   44   22    12    13    1.2119E+03 -1.7129E+02   1.3832E+03  0.000E+00  0.000E+00  0.000E+00  2.25001E+03  1.030E-02  3.000E+00  1.909E+03  0.000E+00  0.000E+00
   2   43   23    12    14    1.3832E+03  1.4648E+02   1.2367E+03  0.000E+00  0.000E+00  0.000E+00  2.23101E+03  1.043E-02  3.000E+00  1.909E+03  0.000E+00  0.000E+00
   2   42   24    12    15    1.2367E+03 -7.5156E+01   1.3119E+03  0.000E+00  0.000E+00  0.000E+00  2.20801E+03  1.071E-02  3.000E+00  1.630E+03  0.000E+00  0.000E+00
   2   42   25    12    16    1.3119E+03 -1.3172E+01   1.3251E+03  0.000E+00  0.000E+00  0.000E+00  2.20001E+03  1.179E-02  3.000E+00  1.350E+03  0.000E+00  0.000E+00
   2   42   26    12    17    1.3251E+03  1.2485E+02   1.2002E+03  0.000E+00  0.000E+00  0.000E+00  2.18801E+03  1.017E-02  3.000E+00  1.350E+03  0.000E+00  0.000E+00
   2   42   27    12    18    1.2002E+03 -2.5990E+02   1.4601E+03  0.000E+00  0.000E+00  0.000E+00  2.17001E+03  1.060E-02  3.000E+00  1.350E+03  0.000E+00  0.000E+00
   2   42   28    12    19    1.4601E+03 -9.0164E+01   1.5503E+03  0.000E+00  0.000E+00  0.000E+00  2.15901E+03  1.221E-02  3.000E+00  1.630E+03  0.000E+00  0.000E+00
   2   41   29    12    20    1.5503E+03  1.5231E+02   1.3980E+03  0.000E+00  0.000E+00  0.000E+00  2.14201E+03  1.214E-02  3.000E+00  1.909E+03  0.000E+00  0.000E+00
   2   40   30    12    21    1.3980E+03  7.6670E+01   1.3213E+03  0.000E+00  0.000E+00  0.000E+00  2.12701E+03  1.217E-02  3.000E+00  1.909E+03  0.000E+00  0.000E+00
   2   39   31    12    22    1.3213E+03  1.1455E+02   1.2068E+03  0.000E+00  0.000E+00  0.000E+00  2.11501E+03  1.207E-02  3.000E+00  1.909E+03  1.151E+02 -5.602E-01
   2   38   32    12    23    1.2068E+03  1.1455E+02   1.0922E+03  0.000E+00  0.000E+00  0.000E+00  2.10301E+03  1.113E-02  3.000E+00  1.909E+03  1.190E+02 -4.427E+00
   2   37   33    12    24    1.0922E+03  4.4615E+01   1.0476E+03  0.000E+00  0.000E+00  0.000E+00  2.08901E+03  1.066E-02  3.000E+00  1.909E+03  0.000E+00  0.000E+00
   2   36   34    12    25    1.0476E+03 -5.3776E+01   1.1014E+03  0.000E+00  0.000E+00  0.000E+00  2.07701E+03  9.130E-03  3.000E+00  9.546E+02  0.000E+00  0.000E+00
   2   38   62    13     1    7.7157E+03 -1.0929E+02   7.8249E+03  0.000E+00  0.000E+00  0.000E+00  1.96303E+03  3.417E-02  3.000E+00  6.750E+02  0.000E+00  0.000E+00
   2   38   63    13     2    7.8249E+03 -5.5973E+00   7.8305E+03  0.000E+00  0.000E+00  0.000E+00  1.96523E+03  2.235E+00  3.000E+00  1.350E+03  0.000E+00  0.000E+00
   2   38   64    13     3    7.8305E+03  2.8609E+01   7.8019E+03  0.000E+00  0.000E+00  0.000E+00  1.96523E+03  2.233E+00  3.000E+00  1.350E+03  0.000E+00  0.000E+00
   2   38   65    13     4    7.8019E+03 -1.3387E+01   7.8153E+03  0.000E+00  0.000E+00  0.000E+00  1.96306E+03  6.054E-02  3.000E+00  6.750E+02  0.000E+00  0.000E+00
   2   46   61    14     1    0.0000E+00  0.0000E+00   0.0000E+00  0.000E+00  0.000E+00  0.000E+00  2.01700E+03  0.000E+00  3.000E+00  1.350E+03  0.000E+00  0.000E+00
   2   45   61    14     2    0.0000E+00  0.0000E+00   0.0000E+00  0.000E+00  0.000E+00  0.000E+00  2.01000E+03  0.000E+00  3.000E+00  1.350E+03  0.000E+00  0.000E+00
   2   44   61    14     3    0.0000E+00  0.0000E+00   0.0000E+00  0.000E+00  0.000E+00  0.000E+00  2.00600E+03  0.000E+00  3.000E+00  1.350E+03  0.000E+00  0.000E+00
   2   43   61    14     4    0.0000E+00  0.0000E+00   0.0000E+00  0.000E+00  0.000E+00  0.000E+00  1.99900E+03  0.000E+00  3.000E+00  1.350E+03  0.000E+00  0.000E+00
   2   42   61    14     5    0.0000E+00  0.0000E+00   0.0000E+00  0.000E+00  0.000E+00  0.000E+00  1.99300E+03  0.000E+00  3.000E+00  1.350E+03  0.000E+00  0.000E+00
   2   41   61    14     6    0.0000E+00  0.0000E+00   0.0000E+00  0.000E+00  0.000E+00  0.000E+00  1.98500E+03  0.000E+00  3.000E+00  1.350E+03  0.000E+00  0.000E+00
   2   40   61    14     7    0.0000E+00  0.0000E+00   0.0000E+00  0.000E+00  0.000E+00  0.000E+00  1.97800E+03  0.000E+00  3.000E+00  1.350E+03  0.000E+00  0.000E+00
   2   39   61    14     8    0.0000E+00  0.0000E+00   0.0000E+00  0.000E+00  0.000E+00  0.000E+00  1.97300E+03  0.000E+00  3.000E+00  1.630E+03  0.000E+00  0.000E+00
   2   38   62    14     9    0.0000E+00 -1.8464E+02   1.8464E+02  0.000E+00  0.000E+00  0.000E+00  1.96300E+03  2.652E-03  3.000E+00  9.546E+02  0.000E+00  0.000E+00
   2   39   70    15     1    8.1197E+03  1.9970E+00   8.1177E+03  0.000E+00  0.000E+00  0.000E+00  1.94603E+03  3.409E-02  3.000E+00  6.750E+02  0.000E+00  0.000E+00
   2   40   75    16     1    1.5000E+04 -2.9168E+01   1.5029E+04  0.000E+00  0.000E+00  0.000E+00  1.93406E+03  6.245E-02  3.000E+00  6.750E+02  0.000E+00  0.000E+00
   2   40   76    16     2    1.5029E+04  0.0000E+00   1.5029E+04  0.000E+00  0.000E+00  0.000E+00  1.93309E+03  8.967E-02  3.000E+00  0.000E+00  0.000E+00  0.000E+00
   2   55   73    17     1    0.0000E+00  0.0000E+00   0.0000E+00  0.000E+00  0.000E+00  0.000E+00  2.04100E+03  0.000E+00  3.000E+00  1.350E+03  0.000E+00  0.000E+00
   2   54   73    17     2    0.0000E+00  0.0000E+00   0.0000E+00  0.000E+00  0.000E+00  0.000E+00  2.02900E+03  0.000E+00  3.000E+00  1.350E+03  0.000E+00  0.000E+00
   2   53   73    17     3    0.0000E+00  0.0000E+00   0.0000E+00  0.000E+00  0.000E+00  0.000E+00  2.01700E+03  0.000E+00  3.000E+00  1.350E+03  0.000E+00  0.000E+00
   2   52   73    17     4    0.0000E+00  0.0000E+00   0.0000E+00  0.000E+00  0.000E+00  0.000E+00  2.01000E+03  0.000E+00  3.000E+00  1.630E+03  0.000E+00  0.000E+00
   2   51   72    17     5    0.0000E+00  0.0000E+00   0.0000E+00  0.000E+00  0.000E+00  0.000E+00  1.99800E+03  0.000E+00  3.000E+00  1.630E+03  0.000E+00  0.000E+00
   2   50   72    17     6    0.0000E+00 -5.0470E+01   5.0470E+01  0.000E+00  0.000E+00  0.000E+00  1.97500E+03  1.280E-03  3.000E+00  1.350E+03  0.000E+00  0.000E+00
   2   49   72    17     7    5.0470E+01  0.0000E+00   5.0470E+01  0.000E+00  0.000E+00  0.000E+00  1.95600E+03  1.859E-03  3.000E+00  0.000E+00  0.000E+00  0.000E+00
   2   48   72    17     8    5.0470E+01  0.0000E+00   5.0470E+01  0.000E+00  0.000E+00  0.000E+00  1.95200E+03  1.858E-03  3.000E+00  0.000E+00  0.000E+00  0.000E+00
   2   47   72    17     9    5.0470E+01  0.0000E+00   5.0470E+01  0.000E+00  0.000E+00  0.000E+00  1.95000E+03  1.898E-03  3.000E+00  0.000E+00  0.000E+00  0.000E+00
   2   46   72    17    10    5.0470E+01  0.0000E+00   5.0470E+01  0.000E+00  0.000E+00  0.000E+00  1.94800E+03  1.933E-03  3.000E+00  0.000E+00  0.000E+00  0.000E+00
   2   45   72    17    11    5.0470E+01  0.0000E+00   5.0470E+01  0.000E+00  0.000E+00  0.000E+00  1.94400E+03  1.960E-03  3.000E+00  0.000E+00  0.000E+00  0.000E+00
   2   44   73    17    12    5.0470E+01  0.0000E+00   5.0470E+01  0.000E+00  0.000E+00  0.000E+00  1.94200E+03  2.006E-03  3.000E+00  0.000E+00  0.000E+00  0.000E+00
   2   43   73    17    13    5.0470E+01  0.0000E+00   5.0470E+01  0.000E+00  0.000E+00  0.000E+00  1.94200E+03  2.192E-03  3.000E+00  0.000E+00  0.000E+00  0.000E+00
   2   42   73    17    14    5.0470E+01  0.0000E+00   5.0470E+01  0.000E+00  0.000E+00  0.000E+00  1.94100E+03  2.242E-03  3.000E+00  0.000E+00  0.000E+00  0.000E+00
   2   34   45    18     1    5.3554E+03 -3.6581E+01   5.3920E+03  0.000E+00  0.000E+00  0.000E+00  2.01794E+03  3.814E-02  3.000E+00  1.630E+03  0.000E+00  0.000E+00
   2   34   46    18     2    5.3920E+03 -7.1345E+01   5.4633E+03  0.000E+00  0.000E+00  0.000E+00  2.01104E+03  3.501E-02  3.000E+00  1.350E+03  0.000E+00  0.000E+00
   2   34   47    18     3    5.4633E+03  5.8651E+00   5.4575E+03  0.000E+00  0.000E+00  0.000E+00  2.00703E+03  2.765E-02  3.000E+00  6.750E+02  0.000E+00  0.000E+00
   2   41   74    19     1    1.0058E+04 -2.1874E+02   1.0277E+04  0.000E+00  0.000E+00  0.000E+00  1.93805E+03  5.484E-02  3.000E+00  1.909E+03  0.000E+00  0.000E+00
   2   40   75    19     2    1.0277E+04 -4.8103E+01   1.0325E+04  0.000E+00  0.000E+00  0.000E+00  1.93406E+03  5.527E-02  3.000E+00  9.546E+02  0.000E+00  0.000E+00
   2   39   66    20     1    0.0000E+00  0.0000E+00   0.0000E+00  0.000E+00  0.000E+00  0.000E+00  1.96250E+03  0.000E+00  1.500E+00  8.148E+02  0.000E+00  0.000E+00
   2   39   67    20     2    0.0000E+00  0.0000E+00   0.0000E+00  0.000E+00  0.000E+00  0.000E+00  1.96225E+03  0.000E+00  1.500E+00  6.750E+02  0.000E+00  0.000E+00
   2   40   68    20     3    0.0000E+00  0.0000E+00   0.0000E+00  0.000E+00  0.000E+00  0.000E+00  1.96200E+03  0.000E+00  1.500E+00  9.546E+02  0.000E+00  0.000E+00
   2   41   69    20     4    0.0000E+00  0.0000E+00   0.0000E+00  0.000E+00  0.000E+00  0.000E+00  1.96175E+03  0.000E+00  1.500E+00  8.148E+02  0.000E+00  0.000E+00
   2   42   69    20     5    0.0000E+00  0.0000E+00   0.0000E+00  0.000E+00  0.000E+00  0.000E+00  1.96150E+03  0.000E+00  1.500E+00  8.148E+02  0.000E+00  0.000E+00
   2   43   70    20     6    0.0000E+00  0.0000E+00   0.0000E+00  0.000E+00  0.000E+00  0.000E+00  1.96125E+03  0.000E+00  1.500E+00  8.148E+02  0.000E+00  0.000E+00
   2   38   66    21     1    7.8153E+03 -7.1473E+01   7.8868E+03  0.000E+00  0.000E+00  0.000E+00  1.96005E+03  5.211E-02  3.000E+00  1.350E+03  0.000E+00  0.000E+00
   2   38   67    21     2    7.8868E+03  1.4319E+01   7.8725E+03  0.000E+00  0.000E+00  0.000E+00  1.95805E+03  4.995E-02  3.000E+00  1.630E+03  0.000E+00  0.000E+00
   2   39   68    21     3    7.8725E+03 -1.3514E+01   7.8860E+03  0.000E+00  0.000E+00  0.000E+00  1.95304E+03  4.488E-02  3.000E+00  1.630E+03  0.000E+00  0.000E+00
   2   39   69    21     4    7.8860E+03 -2.1131E+02   8.0973E+03  0.000E+00  0.000E+00  0.000E+00  1.94805E+03  4.761E-02  3.000E+00  1.350E+03  0.000E+00  0.000E+00
   2   39   70    21     5    8.0973E+03  6.5353E+00   8.0908E+03  0.000E+00  0.000E+00  0.000E+00  1.94604E+03  4.081E-02  3.000E+00  6.750E+02  0.000E+00  0.000E+00
   2   38   71    22     1    4.0000E+03 -5.6713E+01   4.0567E+03  0.000E+00  0.000E+00  0.000E+00  1.94556E+03  5.987E-02  3.000E+00  3.259E+02  0.000E+00  0.000E+00
   2   38   72    22     2    4.0567E+03 -4.0608E+01   4.0973E+03  0.000E+00  0.000E+00  0.000E+00  1.94506E+03  6.031E-02  3.000E+00  3.259E+02  0.000E+00  0.000E+00
   2   39   73    22     3    4.0973E+03  1.2450E+02   3.9728E+03  0.000E+00  0.000E+00  0.000E+00  1.94456E+03  5.993E-02  3.000E+00  3.259E+02  0.000E+00  0.000E+00
   2   39   74    22     4    3.9728E+03  8.1000E+01   3.8918E+03  0.000E+00  0.000E+00  0.000E+00  1.94406E+03  5.577E-02  3.000E+00  2.700E+02  8.512E+01 -4.124E+00
   2   39   75    22     5    3.8918E+03  8.1000E+01   3.8108E+03  0.000E+00  0.000E+00  0.000E+00  1.94356E+03  5.508E-02  3.000E+00  2.700E+02  8.467E+01 -3.669E+00
   2   39   76    22     6    3.8108E+03  0.0000E+00   3.8108E+03  0.000E+00  0.000E+00  0.000E+00  1.94305E+03  5.473E-02  3.000E+00  0.000E+00  0.000E+00  0.000E+00
   2   39   71    23     1    4.1177E+03 -1.8762E+02   4.3053E+03  0.000E+00  0.000E+00  0.000E+00  1.94204E+03  3.794E-02  3.000E+00  1.630E+03  0.000E+00  0.000E+00
   2   40   72    23     2    4.3053E+03 -7.4891E+01   4.3802E+03  0.000E+00  0.000E+00  0.000E+00  1.94104E+03  4.132E-02  3.000E+00  1.630E+03  0.000E+00  0.000E+00
   2   40   73    23     3    4.3802E+03 -1.7714E+02   4.5573E+03  0.000E+00  0.000E+00  0.000E+00  1.93804E+03  3.716E-02  3.000E+00  1.350E+03  0.000E+00  0.000E+00
   2   40   74    23     4    4.5573E+03 -7.0846E+01   4.6281E+03  0.000E+00  0.000E+00  0.000E+00  1.93604E+03  4.039E-02  3.000E+00  1.350E+03  0.000E+00  0.000E+00
   2   40   75    23     5    4.6281E+03 -4.6998E+01   4.6751E+03  0.000E+00  0.000E+00  0.000E+00  1.93404E+03  3.604E-02  3.000E+00  6.750E+02  0.000E+00  0.000E+00



1
  VOLUMETRIC BUDGET FOR UNSATURATED ZONE BENEATH STREAMS AT END OF TIME STEP     7 STRESS PERIOD   2
  ------------------------------------------------------------------------------------------------

    CUMULATIVE VOLUMES             L**3    RATES FOR THIS TIME STEP         L**3/T
    ------------------                     ------------------------


          STREAM LOSS =         6028.3770            STREAM LOSS =          859.1051
    CHANGE IN STORAGE =          900.8503      CHANGE IN STORAGE =          -26.1883
       RECHARGE TO GW =         5127.5273         RECHARGE TO GW =          885.2935

             TOTAL IN =         6028.3770               TOTAL IN =          885.2934

            TOTAL OUT =         6028.3779              TOTAL OUT =          885.2935

             IN - OUT =       -9.7656E-04               IN - OUT =       -1.2207E-04

  PERCENT DISCREPANCY =           -0.00      PERCENT DISCREPANCY =            -0.00



 ***WARNING***NUZTOP IS 3 AND ALL LAYERS  IN ROW           39  AND COLUMN 
          76  ARE INACTIVE.
 UNSATURATED FLOW WILL NOT BE ADDED TO ANY LAYER-- SOME WATER MAY FLOW PAST
  LOWEST LAYER
 ***WARNING***NUZTOP IS 3 AND ALL LAYERS  IN ROW           40  AND COLUMN 
          76  ARE INACTIVE.
 UNSATURATED FLOW WILL NOT BE ADDED TO ANY LAYER-- SOME WATER MAY FLOW PAST
  LOWEST LAYER


UNSATURATED ZONE PACKAGE VOLUMETRIC BUDGET FOR  TIME STEP     7 STRESS PERIOD    2
  ------------------------------------------------------------------------------



     CUMULATIVE VOLUMES      L**3       RATES FOR THIS TIME STEP      L**3/T
     ------------------                 ------------------------

           IN:                                      IN:
           ---                                      ---
        INFILTRATION =       26039.6903          INFILTRATION =       0.0000E+00

          OUT:                                     OUT:
          ----                                     ----
              UZF ET =      181423.3286                UZF ET =       22856.4723
        UZF RECHARGE =      225171.2429          UZF RECHARGE =       25802.6068

            IN - OUT =     -380554.8812              IN - OUT =      -48659.0791

          STORAGE:                                 STORAGE:
          --------                                 --------
      STORAGE CHANGE =     -379629.3436        STORAGE CHANGE =      -48597.7975

 PERCENT DISCREPANCY IS DIFFERENCE BETWEEN IN-OUT MINUS CHANGE IN STORAGE
 DIVIDED BY THE AVERAGE OF IN AND OUT TIMES 100

 PERCENT DISCREPANCY =          -0.06     PERCENT DISCREPANCY =          -0.13






1
  VOLUMETRIC BUDGET FOR ENTIRE MODEL AT END OF TIME STEP    7, STRESS PERIOD   2
  ------------------------------------------------------------------------------

     CUMULATIVE VOLUMES      L**3       RATES FOR THIS TIME STEP      L**3/T
     ------------------                 ------------------------

           IN:                                      IN:
           ---                                      ---
             STORAGE     =        1343.1588               STORAGE     =         366.8319
       CONSTANT HEAD     =          17.4087         CONSTANT HEAD     =       4.7272E-02
      STREAM LEAKAGE     =       32731.0488        STREAM LEAKAGE     =        3935.2517
       LAKE  SEEPAGE     =        2476.5554         LAKE  SEEPAGE     =         269.4058
        UZF RECHARGE     =      225184.7500          UZF RECHARGE     =       25802.6426
               GW ET     =           0.0000                 GW ET     =           0.0000
     SURFACE LEAKAGE     =           0.0000       SURFACE LEAKAGE     =           0.0000

                TOTAL IN =      261752.9219                  TOTAL IN =       30374.1797

          OUT:                                     OUT:
          ----                                     ----
             STORAGE     =      110764.3750               STORAGE     =       12745.6055
       CONSTANT HEAD     =         506.2845         CONSTANT HEAD     =          65.8152
      STREAM LEAKAGE     =       89045.8047        STREAM LEAKAGE     =       11966.3105
       LAKE  SEEPAGE     =       21125.1699         LAKE  SEEPAGE     =        2650.8730
        UZF RECHARGE     =           0.0000          UZF RECHARGE     =           0.0000
               GW ET     =       38523.2852                 GW ET     =        2648.4124
     SURFACE LEAKAGE     =        2266.7405       SURFACE LEAKAGE     =         365.7939

               TOTAL OUT =      262231.6562                 TOTAL OUT =       30442.8105

                IN - OUT =        -478.7344                  IN - OUT =         -68.6309

     PERCENT DISCREPANCY =          -0.18         PERCENT DISCREPANCY =          -0.23






         TIME SUMMARY AT END OF TIME STEP    7 IN STRESS PERIOD    2
                    SECONDS     MINUTES      HOURS       DAYS        YEARS
                    -----------------------------------------------------------
   TIME STEP LENGTH  86400.      1440.0      24.000      1.0000     2.73785E-03
 STRESS PERIOD TIME 6.04800E+05  10080.      168.00      7.0000     1.91650E-02
         TOTAL TIME 6.91200E+05  11520.      192.00      8.0000     2.19028E-02
1
                                                   Max.-Head-Change                         Max.-Flux-Residual
  Residual-Control   Outer-Iter.   Inner-Iter.     Column Row Layer    Maximum-Head-Change  Column Row Layer    Maximum-Flux-Residual          L2-NORM 
          0                 1           4            12   47     2       0.1498506989E+01      68   26    2         0.2203438990E+03      0.5096662527E+03
          0                 2           4            30   55     2       0.1383383258E+01      68   26    2        -0.1217741972E+03      0.1541688091E+03
          0                 3           4            30   55     2      -0.9909695233E-01      68   26    2        -0.1350221560E+02      0.2633576341E+02
          0                 4           3            30   55     2      -0.9273976550E-02      74   39    2         0.3104646514E+01      0.6968334473E+01
          0                 5           2            74   39     2       0.1804557769E-02      74   39    2         0.1088327881E+01      0.2358426370E+01
          0                 6           1            74   39     2       0.6327621453E-03      74   39    2         0.3815067320E+00      0.8808077212E+00
          0                 7           1            74   39     2       0.2217649996E-03      74   39    2         0.1336879721E+00      0.3439038302E+00
          0                 8           1             3   59     2       0.8766597660E-04       3   59    2         0.5230928502E-01      0.1387436341E+00

    ------------------------------------------------
       NWT REQUIRED            8 OUTER ITERATIONS 
       AND A TOTAL OF         20 INNER ITERATIONS.
    ------------------------------------------------
                                                   Max.-Head-Change                         Max.-Flux-Residual
  Residual-Control   Outer-Iter.   Inner-Iter.     Column Row Layer    Maximum-Head-Change  Column Row Layer    Maximum-Flux-Residual          L2-NORM 
          0                 1           2            63   38     2       0.1015284686E-01      63   38    2         0.1311454369E+02      0.1688966275E+02
          0                 2           2            64   38     2       0.3039237980E-02      64   38    2         0.3941046523E+01      0.4445641153E+01
          0                 3           2            49   23     2       0.1416712421E-02      64   38    2         0.3335627881E+00      0.4771266942E+00
          0                 4           1            49   23     2       0.1421948019E-03      63   38    2         0.4948880942E-01      0.1057603962E+00
          0                 5           1            37   60     3       0.2024127288E-04      63   38    2         0.2983624446E-01      0.4862596410E-01

    ------------------------------------------------
       NWT REQUIRED            5 OUTER ITERATIONS 
       AND A TOTAL OF          8 INNER ITERATIONS.
    ------------------------------------------------
                                                   Max.-Head-Change                         Max.-Flux-Residual
  Residual-Control   Outer-Iter.   Inner-Iter.     Column Row Layer    Maximum-Head-Change  Column Row Layer    Maximum-Flux-Residual          L2-NORM 
          0                 1           1            24   33     2      -0.8308146659E-03      49   24    2        -0.1171533775E-01      0.1024699734E+00
          0                 2           1            49   23     2      -0.7446093743E-03      63   38    2        -0.5084993233E-01      0.1301937958E+00
          0                 3           2            24   33     2       0.1415634120E-02      63   38    2        -0.3622750281E-01      0.2166691362E+00
          0                 4           1            49   23     2       0.1412130163E-03      63   38    2         0.6493645308E-01      0.1073612157E+00
          0                 5           1            63   38     2       0.1803942184E-04      63   38    2         0.3461177790E-01      0.5655803683E-01

    ------------------------------------------------
       NWT REQUIRED            5 OUTER ITERATIONS 
       AND A TOTAL OF          6 INNER ITERATIONS.
    ------------------------------------------------
                                                   Max.-Head-Change                         Max.-Flux-Residual
  Residual-Control   Outer-Iter.   Inner-Iter.     Column Row Layer    Maximum-Head-Change  Column Row Layer    Maximum-Flux-Residual          L2-NORM 
          0                 1           1            24   33     2      -0.8308708623E-03      49   24    2        -0.1171709491E-01      0.1031035522E+00
          0                 2           1            49   23     2      -0.7445469410E-03      63   38    2        -0.5204809791E-01      0.1305617988E+00
          0                 3           2            24   33     2       0.1415600251E-02      63   38    2        -0.3638902555E-01      0.2177999114E+00
          0                 4           1            49   23     2       0.1412288537E-03      63   38    2         0.6499884857E-01      0.1044730161E+00
          0                 5           1            63   38     2       0.1801396940E-04      63   38    2         0.3446176524E-01      0.5938663238E-01

    ------------------------------------------------
       NWT REQUIRED            5 OUTER ITERATIONS 
       AND A TOTAL OF          6 INNER ITERATIONS.
    ------------------------------------------------

 OUTPUT CONTROL FOR STRESS PERIOD    2   TIME STEP    8
    PRINT BUDGET



 STREAM LISTING     PERIOD      2   STEP        8

 LAYER ROW COL. STREAM  RCH.   FLOW INTO    STREAM     FLOW OUT OF   OVRLND.    DIRECT     STREAM      STREAM      STREAM     STREAM  STREAMBED   FLOW TO   CHNG. UNSAT. 
                SEG.NO.  NO.   STRM. RCH.    LOSS       STRM. RCH.   RUNOFF     PRECIP       ET         HEAD        DEPTH      WIDTH  CONDCTNC.   WAT. TAB.

   2   18   62     1     1    0.0000E+00  0.0000E+00   0.0000E+00  0.000E+00  0.000E+00  0.000E+00  2.07300E+03  0.000E+00  3.000E+00  1.909E+03  0.000E+00  0.000E+00
   2   19   63     1     2    0.0000E+00 -4.8628E+01   4.8628E+01  0.000E+00  0.000E+00  0.000E+00  2.06300E+03  1.210E-03  3.000E+00  1.909E+03  0.000E+00  0.000E+00
   2   20   64     1     3    4.8628E+01 -7.4638E+01   1.2327E+02  0.000E+00  0.000E+00  0.000E+00  2.05400E+03  2.825E-03  3.000E+00  1.630E+03  0.000E+00  0.000E+00
   2   21   64     1     4    1.2327E+02 -7.6147E+01   1.9941E+02  0.000E+00  0.000E+00  0.000E+00  2.05101E+03  5.074E-03  3.000E+00  1.630E+03  0.000E+00  0.000E+00
   2   22   65     1     5    1.9941E+02 -8.7054E+00   2.0812E+02  0.000E+00  0.000E+00  0.000E+00  2.04800E+03  4.972E-03  3.000E+00  9.546E+02  0.000E+00  0.000E+00
   2   20   66     2     1    0.0000E+00  0.0000E+00   0.0000E+00  0.000E+00  0.000E+00  0.000E+00  2.05300E+03  0.000E+00  3.000E+00  1.909E+03  0.000E+00  0.000E+00
   2   21   65     2     2    0.0000E+00  0.0000E+00   0.0000E+00  0.000E+00  0.000E+00  0.000E+00  2.05100E+03  0.000E+00  3.000E+00  1.630E+03  0.000E+00  0.000E+00
   2   22   65     2     3    0.0000E+00 -9.2006E+00   9.2006E+00  0.000E+00  0.000E+00  0.000E+00  2.04800E+03  4.608E-04  3.000E+00  6.750E+02  0.000E+00  0.000E+00
   2   22   65     3     1    2.1732E+02 -6.3405E+00   2.2366E+02  0.000E+00  0.000E+00  0.000E+00  2.04800E+03  4.698E-03  3.000E+00  6.750E+02  0.000E+00  0.000E+00
   2   23   65     3     2    2.2366E+02 -7.0956E+01   2.9462E+02  0.000E+00  0.000E+00  0.000E+00  2.04501E+03  8.301E-03  3.000E+00  1.630E+03  0.000E+00  0.000E+00
   2   24   66     3     3    2.9462E+02 -2.3585E+00   2.9697E+02  0.000E+00  0.000E+00  0.000E+00  2.04531E+03  3.131E-01  3.000E+00  1.909E+03  0.000E+00  0.000E+00
   2   25   67     3     4    2.9697E+02  3.3013E+01   2.6396E+02  0.000E+00  0.000E+00  0.000E+00  2.04501E+03  9.128E-03  3.000E+00  1.909E+03  0.000E+00  0.000E+00
   2   26   68     3     5    2.6396E+02  1.9493E+02   6.9028E+01  0.000E+00  0.000E+00  0.000E+00  2.04201E+03  5.839E-03  3.000E+00  1.630E+03  0.000E+00  0.000E+00
   2   27   68     3     6    6.9028E+01  6.9028E+01   0.0000E+00  0.000E+00  0.000E+00  0.000E+00  2.04100E+03  6.858E-04  3.000E+00  1.630E+03  0.000E+00  6.903E+01
   2   28   69     3     7    0.0000E+00  0.0000E+00   0.0000E+00  0.000E+00  0.000E+00  0.000E+00  2.03600E+03  0.000E+00  3.000E+00  1.630E+03  0.000E+00  0.000E+00
   2   29   69     3     8    0.0000E+00  0.0000E+00   0.0000E+00  0.000E+00  0.000E+00  0.000E+00  2.02900E+03  0.000E+00  3.000E+00  1.350E+03  0.000E+00  0.000E+00
   2   30   69     3     9    0.0000E+00  0.0000E+00   0.0000E+00  0.000E+00  0.000E+00  0.000E+00  2.02300E+03  0.000E+00  3.000E+00  1.630E+03  0.000E+00  0.000E+00
   2   31   70     3    10    0.0000E+00  0.0000E+00   0.0000E+00  0.000E+00  0.000E+00  0.000E+00  2.01100E+03  0.000E+00  3.000E+00  1.630E+03  0.000E+00  0.000E+00
   2   32   70     3    11    0.0000E+00 -6.0219E+01   6.0219E+01  0.000E+00  0.000E+00  0.000E+00  2.00500E+03  1.607E-03  3.000E+00  1.350E+03  0.000E+00  0.000E+00
   2   33   70     3    12    6.0219E+01  6.0219E+01   0.0000E+00  0.000E+00  0.000E+00  0.000E+00  2.00300E+03  4.473E-04  3.000E+00  1.630E+03  6.165E+01 -1.432E+00
   2   34   69     3    13    0.0000E+00 -3.2616E+01   3.2616E+01  0.000E+00  0.000E+00  0.000E+00  1.98600E+03  7.915E-04  3.000E+00  1.630E+03  0.000E+00  0.000E+00
   2   35   69     3    14    3.2616E+01 -1.1949E+02   1.5210E+02  0.000E+00  0.000E+00  0.000E+00  1.97300E+03  2.428E-03  3.000E+00  1.350E+03  0.000E+00  0.000E+00
   2   36   69     3    15    1.5210E+02  2.0362E+01   1.3174E+02  0.000E+00  0.000E+00  0.000E+00  1.96700E+03  3.444E-03  3.000E+00  1.350E+03  0.000E+00  0.000E+00
   2   37   69     3    16    1.3174E+02  1.3174E+02   0.0000E+00  0.000E+00  0.000E+00  0.000E+00  1.95900E+03  7.410E-04  3.000E+00  1.350E+03  0.000E+00  0.000E+00
   2   38   69     3    17    0.0000E+00  0.0000E+00   0.0000E+00  0.000E+00  0.000E+00  0.000E+00  1.95300E+03  0.000E+00  3.000E+00  1.630E+03  0.000E+00  0.000E+00
   2   39   70     3    18    0.0000E+00 -2.9285E+01   2.9285E+01  0.000E+00  0.000E+00  0.000E+00  1.94600E+03  8.540E-04  3.000E+00  9.546E+02  0.000E+00  0.000E+00
   2   25   49     4     1    0.0000E+00 -1.3312E+02   1.3312E+02  0.000E+00  0.000E+00  0.000E+00  2.03500E+03  2.148E-03  3.000E+00  1.909E+03  0.000E+00  0.000E+00
   2   26   50     4     2    1.3312E+02 -9.2759E+01   2.2588E+02  0.000E+00  0.000E+00  0.000E+00  2.02600E+03  4.227E-03  3.000E+00  1.909E+03  0.000E+00  0.000E+00
   2   27   51     4     3    2.2588E+02 -8.2008E+01   3.0788E+02  0.000E+00  0.000E+00  0.000E+00  2.01901E+03  5.574E-03  3.000E+00  1.630E+03  0.000E+00  0.000E+00
   2   28   51     4     4    3.0788E+02 -7.5499E+01   3.8338E+02  0.000E+00  0.000E+00  0.000E+00  2.01401E+03  6.876E-03  3.000E+00  1.630E+03  0.000E+00  0.000E+00
   2   29   52     4     5    3.8338E+02 -6.9536E+01   4.5292E+02  0.000E+00  0.000E+00  0.000E+00  2.00901E+03  7.708E-03  3.000E+00  1.630E+03  0.000E+00  0.000E+00
   2   30   52     4     6    4.5292E+02 -5.3919E+01   5.0684E+02  0.000E+00  0.000E+00  0.000E+00  2.00401E+03  7.913E-03  3.000E+00  1.350E+03  0.000E+00  0.000E+00
   2   31   52     4     7    5.0684E+02 -7.6837E+01   5.8368E+02  0.000E+00  0.000E+00  0.000E+00  1.99901E+03  9.508E-03  3.000E+00  1.350E+03  0.000E+00  0.000E+00
   2   32   52     4     8    5.8368E+02  2.9233E+00   5.8075E+02  0.000E+00  0.000E+00  0.000E+00  1.99701E+03  1.005E-02  3.000E+00  1.630E+03  0.000E+00  0.000E+00
   2   33   53     4     9    5.8075E+02  5.2606E+00   5.7549E+02  0.000E+00  0.000E+00  0.000E+00  1.99101E+03  9.818E-03  3.000E+00  1.909E+03  0.000E+00  0.000E+00
   2   34   54     4    10    5.7549E+02  1.5163E+02   4.2386E+02  0.000E+00  0.000E+00  0.000E+00  1.98701E+03  9.284E-03  3.000E+00  1.909E+03  0.000E+00  0.000E+00
   2   35   55     4    11    4.2386E+02  9.7776E+01   3.2608E+02  0.000E+00  0.000E+00  0.000E+00  1.98201E+03  7.017E-03  3.000E+00  1.630E+03  1.008E+02 -3.010E+00
   2   36   55     4    12    3.2608E+02 -8.5974E+01   4.1205E+02  0.000E+00  0.000E+00  0.000E+00  1.97601E+03  6.110E-03  3.000E+00  6.750E+02  0.000E+00  0.000E+00
   2   35   37     5     1    4.6348E+03  0.0000E+00   4.6348E+03  0.000E+00  0.000E+00  0.000E+00  2.05402E+03  2.415E-02  3.000E+00  0.000E+00  0.000E+00  0.000E+00
   2   34   38     5     2    4.6348E+03  0.0000E+00   4.6348E+03  0.000E+00  0.000E+00  0.000E+00  2.04003E+03  2.972E-02  3.000E+00  0.000E+00  0.000E+00  0.000E+00
   2   33   39     5     3    4.6348E+03  0.0000E+00   4.6348E+03  0.000E+00  0.000E+00  0.000E+00  2.03204E+03  3.533E-02  3.000E+00  0.000E+00  0.000E+00  0.000E+00
   2   32   40     5     4    4.6348E+03  0.0000E+00   4.6348E+03  0.000E+00  0.000E+00  0.000E+00  2.03003E+03  3.490E-02  3.000E+00  0.000E+00  0.000E+00  0.000E+00
   2   32   41     5     5    4.6348E+03  0.0000E+00   4.6348E+03  0.000E+00  0.000E+00  0.000E+00  2.02603E+03  2.921E-02  3.000E+00  0.000E+00  0.000E+00  0.000E+00
   2   32   42     5     6    4.6348E+03  0.0000E+00   4.6348E+03  0.000E+00  0.000E+00  0.000E+00  2.02203E+03  3.433E-02  3.000E+00  0.000E+00  0.000E+00  0.000E+00
   2   32   43     5     7    4.6348E+03  0.0000E+00   4.6348E+03  0.000E+00  0.000E+00  0.000E+00  2.02004E+03  3.805E-02  3.000E+00  0.000E+00  0.000E+00  0.000E+00
   2   33   44     5     8    4.6348E+03  0.0000E+00   4.6348E+03  0.000E+00  0.000E+00  0.000E+00  2.01904E+03  3.810E-02  3.000E+00  0.000E+00  0.000E+00  0.000E+00
   2   34   47     6     1    5.5481E+03  4.3951E+00   5.5437E+03  0.000E+00  0.000E+00  0.000E+00  2.00703E+03  2.579E-02  3.000E+00  6.750E+02  0.000E+00  0.000E+00
   2   34   48     6     2    5.5437E+03 -1.2726E+02   5.6709E+03  0.000E+00  0.000E+00  0.000E+00  2.00103E+03  3.382E-02  3.000E+00  1.630E+03  0.000E+00  0.000E+00
   2   35   49     6     3    5.6709E+03 -2.6121E+02   5.9321E+03  0.000E+00  0.000E+00  0.000E+00  1.99404E+03  3.630E-02  3.000E+00  1.630E+03  0.000E+00  0.000E+00
   2   35   50     6     4    5.9321E+03 -1.9008E+02   6.1222E+03  0.000E+00  0.000E+00  0.000E+00  1.99004E+03  4.446E-02  3.000E+00  1.350E+03  0.000E+00  0.000E+00
   2   35   51     6     5    6.1222E+03  2.2429E+01   6.0998E+03  0.000E+00  0.000E+00  0.000E+00  1.98904E+03  4.491E-02  3.000E+00  1.630E+03  0.000E+00  0.000E+00
   2   36   52     6     6    6.0998E+03 -1.1892E+02   6.2187E+03  0.000E+00  0.000E+00  0.000E+00  1.98404E+03  3.996E-02  3.000E+00  1.630E+03  0.000E+00  0.000E+00
   2   36   53     6     7    6.2187E+03 -2.5597E+02   6.4747E+03  0.000E+00  0.000E+00  0.000E+00  1.98005E+03  5.189E-02  3.000E+00  1.630E+03  0.000E+00  0.000E+00
   2   37   54     6     8    6.4747E+03 -4.5191E+01   6.5199E+03  0.000E+00  0.000E+00  0.000E+00  1.98006E+03  5.518E-02  3.000E+00  1.909E+03  0.000E+00  0.000E+00
   2   36   55     6     9    6.5199E+03 -8.7157E+01   6.6070E+03  0.000E+00  0.000E+00  0.000E+00  1.97604E+03  4.218E-02  3.000E+00  9.546E+02  0.000E+00  0.000E+00
   2   36   34     7     1    1.8321E+03 -5.0812E+01   1.8829E+03  0.000E+00  0.000E+00  0.000E+00  2.07701E+03  1.268E-02  3.000E+00  9.546E+02  0.000E+00  0.000E+00
   2   35   35     7     2    1.8829E+03 -1.0807E+02   1.9910E+03  0.000E+00  0.000E+00  0.000E+00  2.06702E+03  1.712E-02  3.000E+00  1.630E+03  0.000E+00  0.000E+00
   2   35   36     7     3    1.9910E+03  2.3416E+01   1.9676E+03  0.000E+00  0.000E+00  0.000E+00  2.06202E+03  1.711E-02  3.000E+00  1.350E+03  0.000E+00  0.000E+00
   2   35   37     7     4    1.9676E+03 -6.2093E+01   2.0297E+03  0.000E+00  0.000E+00  0.000E+00  2.05401E+03  1.314E-02  3.000E+00  6.750E+02  0.000E+00  0.000E+00
   2   52   49     8     1    0.0000E+00 -1.9425E+02   1.9425E+02  0.000E+00  0.000E+00  0.000E+00  2.12100E+03  2.777E-03  3.000E+00  1.909E+03  0.000E+00  0.000E+00
   2   51   48     8     2    1.9425E+02 -2.3700E+02   4.3125E+02  0.000E+00  0.000E+00  0.000E+00  2.11701E+03  8.939E-03  3.000E+00  1.909E+03  0.000E+00  0.000E+00
   2   50   47     8     3    4.3125E+02  1.9029E+02   2.4096E+02  0.000E+00  0.000E+00  0.000E+00  2.11701E+03  7.230E-03  3.000E+00  1.630E+03  0.000E+00  0.000E+00
   2   49   47     8     4    2.4096E+02 -2.6168E+02   5.0264E+02  0.000E+00  0.000E+00  0.000E+00  2.10901E+03  7.184E-03  3.000E+00  1.630E+03  0.000E+00  0.000E+00
   2   48   46     8     5    5.0264E+02  1.4813E+01   4.8783E+02  0.000E+00  0.000E+00  0.000E+00  2.10701E+03  1.123E-02  3.000E+00  1.630E+03  0.000E+00  0.000E+00
   2   47   46     8     6    4.8783E+02  1.7102E+02   3.1682E+02  0.000E+00  0.000E+00  0.000E+00  2.10501E+03  9.370E-03  3.000E+00  1.350E+03  0.000E+00  0.000E+00
   2   46   46     8     7    3.1682E+02  8.1000E+01   2.3582E+02  0.000E+00  0.000E+00  0.000E+00  2.10301E+03  6.623E-03  3.000E+00  1.350E+03  8.352E+01 -2.523E+00
   2   45   46     8     8    2.3582E+02  8.1000E+01   1.5482E+02  0.000E+00  0.000E+00  0.000E+00  2.09900E+03  4.368E-03  3.000E+00  1.350E+03  8.419E+01 -3.185E+00
   2   44   46     8     9    1.5482E+02  8.1000E+01   7.3815E+01  0.000E+00  0.000E+00  0.000E+00  2.09100E+03  2.760E-03  3.000E+00  1.350E+03  8.417E+01 -3.174E+00
   2   43   46     8    10    7.3815E+01  7.3815E+01   0.0000E+00  0.000E+00  0.000E+00  0.000E+00  2.08000E+03  4.776E-04  3.000E+00  1.350E+03  7.360E+01  2.162E-01
   2   42   46     8    11    0.0000E+00  0.0000E+00   0.0000E+00  0.000E+00  0.000E+00  0.000E+00  2.07200E+03  0.000E+00  3.000E+00  1.630E+03  0.000E+00  0.000E+00
   2   41   45     8    12    0.0000E+00  0.0000E+00   0.0000E+00  0.000E+00  0.000E+00  0.000E+00  2.06000E+03  0.000E+00  3.000E+00  1.630E+03  0.000E+00  0.000E+00
   2   40   45     8    13    0.0000E+00  0.0000E+00   0.0000E+00  0.000E+00  0.000E+00  0.000E+00  2.05400E+03  0.000E+00  3.000E+00  1.350E+03  0.000E+00  0.000E+00
   2   39   45     8    14    0.0000E+00  0.0000E+00   0.0000E+00  0.000E+00  0.000E+00  0.000E+00  2.04600E+03  0.000E+00  3.000E+00  1.350E+03  0.000E+00  0.000E+00
   2   38   45     8    15    0.0000E+00  0.0000E+00   0.0000E+00  0.000E+00  0.000E+00  0.000E+00  2.03500E+03  0.000E+00  3.000E+00  1.350E+03  0.000E+00  0.000E+00
   2   37   45     8    16    0.0000E+00  0.0000E+00   0.0000E+00  0.000E+00  0.000E+00  0.000E+00  2.02700E+03  0.000E+00  3.000E+00  1.630E+03  0.000E+00  0.000E+00
   2   36   46     8    17    0.0000E+00  0.0000E+00   0.0000E+00  0.000E+00  0.000E+00  0.000E+00  2.02100E+03  0.000E+00  3.000E+00  1.630E+03  0.000E+00  0.000E+00
   2   35   46     8    18    0.0000E+00  0.0000E+00   0.0000E+00  0.000E+00  0.000E+00  0.000E+00  2.01400E+03  0.000E+00  3.000E+00  1.630E+03  0.000E+00  0.000E+00
   2   34   47     8    19    0.0000E+00 -1.7832E+01   1.7832E+01  0.000E+00  0.000E+00  0.000E+00  2.00700E+03  6.031E-04  3.000E+00  9.546E+02  0.000E+00  0.000E+00
   2   37   26     9     1    0.0000E+00  0.0000E+00   0.0000E+00  0.000E+00  0.000E+00  0.000E+00  2.14700E+03  0.000E+00  3.000E+00  1.350E+03  0.000E+00  0.000E+00
   2   37   27     9     2    0.0000E+00 -3.8009E+01   3.8009E+01  0.000E+00  0.000E+00  0.000E+00  2.13400E+03  9.000E-04  3.000E+00  1.350E+03  0.000E+00  0.000E+00
   2   37   28     9     3    3.8009E+01 -1.2309E+02   1.6109E+02  0.000E+00  0.000E+00  0.000E+00  2.12500E+03  2.688E-03  3.000E+00  1.630E+03  0.000E+00  0.000E+00
   2   36   29     9     4    1.6109E+02  3.3262E+01   1.2783E+02  0.000E+00  0.000E+00  0.000E+00  2.11500E+03  3.415E-03  3.000E+00  1.630E+03  0.000E+00  0.000E+00
   2   36   30     9     5    1.2783E+02 -6.6717E+01   1.9455E+02  0.000E+00  0.000E+00  0.000E+00  2.10700E+03  3.507E-03  3.000E+00  1.350E+03  0.000E+00  0.000E+00
   2   36   31     9     6    1.9455E+02 -1.8990E+02   3.8445E+02  0.000E+00  0.000E+00  0.000E+00  2.09801E+03  5.074E-03  3.000E+00  1.350E+03  0.000E+00  0.000E+00
   2   36   32     9     7    3.8445E+02 -1.3852E+02   5.2297E+02  0.000E+00  0.000E+00  0.000E+00  2.09101E+03  6.916E-03  3.000E+00  1.350E+03  0.000E+00  0.000E+00
   2   36   33     9     8    5.2297E+02 -1.3896E+02   6.6193E+02  0.000E+00  0.000E+00  0.000E+00  2.08401E+03  8.117E-03  3.000E+00  1.350E+03  0.000E+00  0.000E+00
   2   36   34     9     9    6.6193E+02 -3.9920E+01   7.0185E+02  0.000E+00  0.000E+00  0.000E+00  2.07701E+03  6.767E-03  3.000E+00  6.750E+02  0.000E+00  0.000E+00
   2   58   37    10     1    0.0000E+00  0.0000E+00   0.0000E+00  0.000E+00  0.000E+00  0.000E+00  2.15000E+03  0.000E+00  3.000E+00  1.350E+03  0.000E+00  0.000E+00
   2   57   37    10     2    0.0000E+00 -7.3875E+01   7.3875E+01  0.000E+00  0.000E+00  0.000E+00  2.14700E+03  2.000E-03  3.000E+00  1.630E+03  0.000E+00  0.000E+00
   2   56   38    10     3    7.3875E+01 -5.9232E+00   7.9799E+01  0.000E+00  0.000E+00  0.000E+00  2.14300E+03  2.879E-03  3.000E+00  1.630E+03  0.000E+00  0.000E+00
   2   55   38    10     4    7.9799E+01 -1.7604E+02   2.5583E+02  0.000E+00  0.000E+00  0.000E+00  2.13800E+03  4.504E-03  3.000E+00  1.350E+03  0.000E+00  0.000E+00
   2   54   38    10     5    2.5583E+02 -1.1769E+02   3.7352E+02  0.000E+00  0.000E+00  0.000E+00  2.13501E+03  7.160E-03  3.000E+00  1.350E+03  0.000E+00  0.000E+00
   2   53   38    10     6    3.7352E+02 -1.1032E+02   4.8385E+02  0.000E+00  0.000E+00  0.000E+00  2.13201E+03  8.619E-03  3.000E+00  1.350E+03  0.000E+00  0.000E+00
   2   52   38    10     7    4.8385E+02 -1.6871E+02   6.5255E+02  0.000E+00  0.000E+00  0.000E+00  2.12901E+03  1.220E-02  3.000E+00  1.630E+03  0.000E+00  0.000E+00
   2   51   39    10     8    6.5255E+02  1.0735E+01   6.4182E+02  0.000E+00  0.000E+00  0.000E+00  2.12801E+03  1.319E-02  3.000E+00  1.630E+03  0.000E+00  0.000E+00
   2   50   39    10     9    6.4182E+02 -8.6714E+01   7.2853E+02  0.000E+00  0.000E+00  0.000E+00  2.12501E+03  1.154E-02  3.000E+00  1.630E+03  0.000E+00  0.000E+00
   2   49   38    10    10    7.2853E+02 -1.5704E+02   8.8557E+02  0.000E+00  0.000E+00  0.000E+00  2.12101E+03  1.335E-02  3.000E+00  1.909E+03  0.000E+00  0.000E+00
   2   48   37    10    11    8.8557E+02  1.7332E+01   8.6824E+02  0.000E+00  0.000E+00  0.000E+00  2.11801E+03  1.193E-02  3.000E+00  1.909E+03  0.000E+00  0.000E+00
   2   47   36    10    12    8.6824E+02 -3.4142E+02   1.2097E+03  0.000E+00  0.000E+00  0.000E+00  2.10901E+03  1.260E-02  3.000E+00  1.630E+03  0.000E+00  0.000E+00
   2   46   36    10    13    1.2097E+03 -1.3529E+02   1.3450E+03  0.000E+00  0.000E+00  0.000E+00  2.10602E+03  1.584E-02  3.000E+00  1.350E+03  0.000E+00  0.000E+00
   2   45   36    10    14    1.3450E+03 -1.7006E+02   1.5150E+03  0.000E+00  0.000E+00  0.000E+00  2.10202E+03  1.696E-02  3.000E+00  1.350E+03  0.000E+00  0.000E+00
   2   44   36    10    15    1.5150E+03 -1.0044E+02   1.6155E+03  0.000E+00  0.000E+00  0.000E+00  2.09902E+03  1.875E-02  3.000E+00  1.350E+03  0.000E+00  0.000E+00
   2   43   36    10    16    1.6155E+03 -2.0888E+01   1.6363E+03  0.000E+00  0.000E+00  0.000E+00  2.09602E+03  1.797E-02  3.000E+00  1.630E+03  0.000E+00  0.000E+00
   2   42   37    10    17    1.6363E+03  1.7538E+02   1.4610E+03  0.000E+00  0.000E+00  0.000E+00  2.09001E+03  1.469E-02  3.000E+00  1.630E+03  0.000E+00  0.000E+00
   2   41   37    10    18    1.4610E+03 -2.6461E+02   1.7256E+03  0.000E+00  0.000E+00  0.000E+00  2.08001E+03  1.412E-02  3.000E+00  1.350E+03  0.000E+00  0.000E+00
   2   40   37    10    19    1.7256E+03 -3.2760E+02   2.0532E+03  0.000E+00  0.000E+00  0.000E+00  2.07402E+03  1.966E-02  3.000E+00  1.630E+03  0.000E+00  0.000E+00
   2   39   38    10    20    2.0532E+03 -3.0446E+01   2.0836E+03  0.000E+00  0.000E+00  0.000E+00  2.07102E+03  2.239E-02  3.000E+00  1.630E+03  0.000E+00  0.000E+00
   2   38   38    10    21    2.0836E+03  2.3458E+01   2.0602E+03  0.000E+00  0.000E+00  0.000E+00  2.06702E+03  2.014E-02  3.000E+00  1.630E+03  0.000E+00  0.000E+00
   2   37   37    10    22    2.0602E+03 -2.8777E+02   2.3479E+03  0.000E+00  0.000E+00  0.000E+00  2.06102E+03  2.090E-02  3.000E+00  1.630E+03  0.000E+00  0.000E+00
   2   36   37    10    23    2.3479E+03 -1.9783E+02   2.5458E+03  0.000E+00  0.000E+00  0.000E+00  2.05702E+03  2.340E-02  3.000E+00  1.350E+03  0.000E+00  0.000E+00
   2   35   37    10    24    2.5458E+03 -5.9408E+01   2.6052E+03  0.000E+00  0.000E+00  0.000E+00  2.05402E+03  1.712E-02  3.000E+00  6.750E+02  0.000E+00  0.000E+00
   2   36   55    11     1    7.0191E+03 -6.5883E+01   7.0850E+03  0.000E+00  0.000E+00  0.000E+00  1.97604E+03  3.587E-02  3.000E+00  6.750E+02  0.000E+00  0.000E+00
   2   36   56    11     2    7.0850E+03 -1.1369E+02   7.1986E+03  0.000E+00  0.000E+00  0.000E+00  1.97506E+03  6.072E-02  3.000E+00  1.630E+03  0.000E+00  0.000E+00
   2   37   57    11     3    7.1986E+03 -1.1825E+02   7.3169E+03  0.000E+00  0.000E+00  0.000E+00  1.97306E+03  6.131E-02  3.000E+00  1.630E+03  0.000E+00  0.000E+00
   2   37   58    11     4    7.3169E+03 -7.0008E+01   7.3869E+03  0.000E+00  0.000E+00  0.000E+00  1.97208E+03  8.119E-02  3.000E+00  1.350E+03  0.000E+00  0.000E+00
   2   37   59    11     5    7.3869E+03  4.3786E+01   7.3431E+03  0.000E+00  0.000E+00  0.000E+00  1.97207E+03  6.601E-02  3.000E+00  1.350E+03  0.000E+00  0.000E+00
   2   37   60    11     6    7.3431E+03 -4.1102E+01   7.3842E+03  0.000E+00  0.000E+00  0.000E+00  1.97005E+03  5.305E-02  3.000E+00  1.630E+03  0.000E+00  0.000E+00
   2   38   61    11     7    7.3842E+03 -1.4936E+02   7.5336E+03  0.000E+00  0.000E+00  0.000E+00  1.96705E+03  4.833E-02  3.000E+00  1.630E+03  0.000E+00  0.000E+00
   2   38   62    11     8    7.5336E+03 -1.0284E+02   7.6364E+03  0.000E+00  0.000E+00  0.000E+00  1.96304E+03  4.433E-02  3.000E+00  6.750E+02  0.000E+00  0.000E+00
   2   51   11    12     1    0.0000E+00 -3.7910E+02   3.7910E+02  0.000E+00  0.000E+00  0.000E+00  2.38700E+03  3.969E-03  3.000E+00  1.909E+03  0.000E+00  0.000E+00
   2   50   12    12     2    3.7910E+02 -5.5896E+01   4.3500E+02  0.000E+00  0.000E+00  0.000E+00  2.37501E+03  5.987E-03  3.000E+00  1.630E+03  0.000E+00  0.000E+00
   2   49   12    12     3    4.3500E+02 -3.8041E+02   8.1541E+02  0.000E+00  0.000E+00  0.000E+00  2.36501E+03  8.094E-03  3.000E+00  1.630E+03  0.000E+00  0.000E+00
   2   48   13    12     4    8.1541E+02 -1.7148E+02   9.8689E+02  0.000E+00  0.000E+00  0.000E+00  2.35601E+03  1.082E-02  3.000E+00  1.630E+03  0.000E+00  0.000E+00
   2   48   14    12     5    9.8689E+02 -1.6583E+02   1.1527E+03  0.000E+00  0.000E+00  0.000E+00  2.35001E+03  1.176E-02  3.000E+00  1.630E+03  0.000E+00  0.000E+00
   2   47   15    12     6    1.1527E+03 -1.6452E+02   1.3172E+03  0.000E+00  0.000E+00  0.000E+00  2.34001E+03  1.307E-02  3.000E+00  1.630E+03  0.000E+00  0.000E+00
   2   47   16    12     7    1.3172E+03 -1.3755E+02   1.4548E+03  0.000E+00  0.000E+00  0.000E+00  2.33502E+03  1.537E-02  3.000E+00  1.630E+03  0.000E+00  0.000E+00
   2   46   17    12     8    1.4548E+03  6.9974E+01   1.3848E+03  0.000E+00  0.000E+00  0.000E+00  2.32901E+03  1.451E-02  3.000E+00  1.630E+03  0.000E+00  0.000E+00
   2   46   18    12     9    1.3848E+03  1.5394E+02   1.2309E+03  0.000E+00  0.000E+00  0.000E+00  2.32101E+03  1.125E-02  3.000E+00  1.350E+03  0.000E+00  0.000E+00
   2   46   19    12    10    1.2309E+03 -4.4869E+02   1.6796E+03  0.000E+00  0.000E+00  0.000E+00  2.30601E+03  1.363E-02  3.000E+00  1.350E+03  0.000E+00  0.000E+00
   2   46   20    12    11    1.6796E+03  7.6177E+02   9.1779E+02  0.000E+00  0.000E+00  0.000E+00  2.30601E+03  1.073E-02  3.000E+00  1.630E+03  0.000E+00  0.000E+00
   2   45   21    12    12    9.1779E+02 -3.1509E+02   1.2329E+03  0.000E+00  0.000E+00  0.000E+00  2.27401E+03  8.497E-03  3.000E+00  1.909E+03  0.000E+00  0.000E+00
   2   44   22    12    13    1.2329E+03 -1.7172E+02   1.4046E+03  0.000E+00  0.000E+00  0.000E+00  2.25001E+03  1.040E-02  3.000E+00  1.909E+03  0.000E+00  0.000E+00
   2   43   23    12    14    1.4046E+03  1.4589E+02   1.2587E+03  0.000E+00  0.000E+00  0.000E+00  2.23101E+03  1.053E-02  3.000E+00  1.909E+03  0.000E+00  0.000E+00
   2   42   24    12    15    1.2587E+03 -7.5779E+01   1.3345E+03  0.000E+00  0.000E+00  0.000E+00  2.20801E+03  1.083E-02  3.000E+00  1.630E+03  0.000E+00  0.000E+00
   2   42   25    12    16    1.3345E+03 -1.3893E+01   1.3484E+03  0.000E+00  0.000E+00  0.000E+00  2.20001E+03  1.191E-02  3.000E+00  1.350E+03  0.000E+00  0.000E+00
   2   42   26    12    17    1.3484E+03  1.2439E+02   1.2240E+03  0.000E+00  0.000E+00  0.000E+00  2.18801E+03  1.028E-02  3.000E+00  1.350E+03  0.000E+00  0.000E+00
   2   42   27    12    18    1.2240E+03 -2.6028E+02   1.4843E+03  0.000E+00  0.000E+00  0.000E+00  2.17001E+03  1.071E-02  3.000E+00  1.350E+03  0.000E+00  0.000E+00
   2   42   28    12    19    1.4843E+03 -9.0550E+01   1.5748E+03  0.000E+00  0.000E+00  0.000E+00  2.15901E+03  1.232E-02  3.000E+00  1.630E+03  0.000E+00  0.000E+00
   2   41   29    12    20    1.5748E+03  1.5187E+02   1.4229E+03  0.000E+00  0.000E+00  0.000E+00  2.14201E+03  1.227E-02  3.000E+00  1.909E+03  0.000E+00  0.000E+00
   2   40   30    12    21    1.4229E+03  7.5740E+01   1.3472E+03  0.000E+00  0.000E+00  0.000E+00  2.12701E+03  1.231E-02  3.000E+00  1.909E+03  0.000E+00  0.000E+00
   2   39   31    12    22    1.3472E+03  1.1455E+02   1.2327E+03  0.000E+00  0.000E+00  0.000E+00  2.11501E+03  1.222E-02  3.000E+00  1.909E+03  1.151E+02 -5.773E-01
   2   38   32    12    23    1.2327E+03  1.1455E+02   1.1181E+03  0.000E+00  0.000E+00  0.000E+00  2.10301E+03  1.128E-02  3.000E+00  1.909E+03  1.186E+02 -4.075E+00
   2   37   33    12    24    1.1181E+03  4.1906E+01   1.0762E+03  0.000E+00  0.000E+00  0.000E+00  2.08901E+03  1.083E-02  3.000E+00  1.909E+03  0.000E+00  0.000E+00
   2   36   34    12    25    1.0762E+03 -5.4061E+01   1.1303E+03  0.000E+00  0.000E+00  0.000E+00  2.07701E+03  9.276E-03  3.000E+00  9.546E+02  0.000E+00  0.000E+00
   2   38   62    13     1    7.8216E+03 -1.0951E+02   7.9312E+03  0.000E+00  0.000E+00  0.000E+00  1.96303E+03  3.444E-02  3.000E+00  6.750E+02  0.000E+00  0.000E+00
   2   38   63    13     2    7.9312E+03 -5.2984E+00   7.9365E+03  0.000E+00  0.000E+00  0.000E+00  1.96525E+03  2.253E+00  3.000E+00  1.350E+03  0.000E+00  0.000E+00
   2   38   64    13     3    7.9365E+03  2.8899E+01   7.9076E+03  0.000E+00  0.000E+00  0.000E+00  1.96525E+03  2.251E+00  3.000E+00  1.350E+03  0.000E+00  0.000E+00
   2   38   65    13     4    7.9076E+03 -1.4210E+01   7.9218E+03  0.000E+00  0.000E+00  0.000E+00  1.96306E+03  6.103E-02  3.000E+00  6.750E+02  0.000E+00  0.000E+00
   2   46   61    14     1    0.0000E+00  0.0000E+00   0.0000E+00  0.000E+00  0.000E+00  0.000E+00  2.01700E+03  0.000E+00  3.000E+00  1.350E+03  0.000E+00  0.000E+00
   2   45   61    14     2    0.0000E+00  0.0000E+00   0.0000E+00  0.000E+00  0.000E+00  0.000E+00  2.01000E+03  0.000E+00  3.000E+00  1.350E+03  0.000E+00  0.000E+00
   2   44   61    14     3    0.0000E+00  0.0000E+00   0.0000E+00  0.000E+00  0.000E+00  0.000E+00  2.00600E+03  0.000E+00  3.000E+00  1.350E+03  0.000E+00  0.000E+00
   2   43   61    14     4    0.0000E+00  0.0000E+00   0.0000E+00  0.000E+00  0.000E+00  0.000E+00  1.99900E+03  0.000E+00  3.000E+00  1.350E+03  0.000E+00  0.000E+00
   2   42   61    14     5    0.0000E+00  0.0000E+00   0.0000E+00  0.000E+00  0.000E+00  0.000E+00  1.99300E+03  0.000E+00  3.000E+00  1.350E+03  0.000E+00  0.000E+00
   2   41   61    14     6    0.0000E+00  0.0000E+00   0.0000E+00  0.000E+00  0.000E+00  0.000E+00  1.98500E+03  0.000E+00  3.000E+00  1.350E+03  0.000E+00  0.000E+00
   2   40   61    14     7    0.0000E+00  0.0000E+00   0.0000E+00  0.000E+00  0.000E+00  0.000E+00  1.97800E+03  0.000E+00  3.000E+00  1.350E+03  0.000E+00  0.000E+00
   2   39   61    14     8    0.0000E+00  0.0000E+00   0.0000E+00  0.000E+00  0.000E+00  0.000E+00  1.97300E+03  0.000E+00  3.000E+00  1.630E+03  0.000E+00  0.000E+00
   2   38   62    14     9    0.0000E+00 -1.8522E+02   1.8522E+02  0.000E+00  0.000E+00  0.000E+00  1.96300E+03  2.658E-03  3.000E+00  9.546E+02  0.000E+00  0.000E+00
   2   39   70    15     1    8.2296E+03  1.9118E+00   8.2277E+03  0.000E+00  0.000E+00  0.000E+00  1.94603E+03  3.436E-02  3.000E+00  6.750E+02  0.000E+00  0.000E+00
   2   40   75    16     1    1.5000E+04 -2.9609E+01   1.5030E+04  0.000E+00  0.000E+00  0.000E+00  1.93406E+03  6.245E-02  3.000E+00  6.750E+02  0.000E+00  0.000E+00
   2   40   76    16     2    1.5030E+04  0.0000E+00   1.5030E+04  0.000E+00  0.000E+00  0.000E+00  1.93309E+03  8.967E-02  3.000E+00  0.000E+00  0.000E+00  0.000E+00
   2   55   73    17     1    0.0000E+00  0.0000E+00   0.0000E+00  0.000E+00  0.000E+00  0.000E+00  2.04100E+03  0.000E+00  3.000E+00  1.350E+03  0.000E+00  0.000E+00
   2   54   73    17     2    0.0000E+00  0.0000E+00   0.0000E+00  0.000E+00  0.000E+00  0.000E+00  2.02900E+03  0.000E+00  3.000E+00  1.350E+03  0.000E+00  0.000E+00
   2   53   73    17     3    0.0000E+00  0.0000E+00   0.0000E+00  0.000E+00  0.000E+00  0.000E+00  2.01700E+03  0.000E+00  3.000E+00  1.350E+03  0.000E+00  0.000E+00
   2   52   73    17     4    0.0000E+00  0.0000E+00   0.0000E+00  0.000E+00  0.000E+00  0.000E+00  2.01000E+03  0.000E+00  3.000E+00  1.630E+03  0.000E+00  0.000E+00
   2   51   72    17     5    0.0000E+00  0.0000E+00   0.0000E+00  0.000E+00  0.000E+00  0.000E+00  1.99800E+03  0.000E+00  3.000E+00  1.630E+03  0.000E+00  0.000E+00
   2   50   72    17     6    0.0000E+00 -5.0844E+01   5.0844E+01  0.000E+00  0.000E+00  0.000E+00  1.97500E+03  1.285E-03  3.000E+00  1.350E+03  0.000E+00  0.000E+00
   2   49   72    17     7    5.0844E+01  0.0000E+00   5.0844E+01  0.000E+00  0.000E+00  0.000E+00  1.95600E+03  1.859E-03  3.000E+00  0.000E+00  0.000E+00  0.000E+00
   2   48   72    17     8    5.0844E+01  0.0000E+00   5.0844E+01  0.000E+00  0.000E+00  0.000E+00  1.95200E+03  1.858E-03  3.000E+00  0.000E+00  0.000E+00  0.000E+00
   2   47   72    17     9    5.0844E+01  0.0000E+00   5.0844E+01  0.000E+00  0.000E+00  0.000E+00  1.95000E+03  1.893E-03  3.000E+00  0.000E+00  0.000E+00  0.000E+00
   2   46   72    17    10    5.0844E+01  0.0000E+00   5.0844E+01  0.000E+00  0.000E+00  0.000E+00  1.94800E+03  1.947E-03  3.000E+00  0.000E+00  0.000E+00  0.000E+00
   2   45   72    17    11    5.0844E+01  0.0000E+00   5.0844E+01  0.000E+00  0.000E+00  0.000E+00  1.94400E+03  1.960E-03  3.000E+00  0.000E+00  0.000E+00  0.000E+00
   2   44   73    17    12    5.0844E+01  0.0000E+00   5.0844E+01  0.000E+00  0.000E+00  0.000E+00  1.94200E+03  2.019E-03  3.000E+00  0.000E+00  0.000E+00  0.000E+00
   2   43   73    17    13    5.0844E+01  0.0000E+00   5.0844E+01  0.000E+00  0.000E+00  0.000E+00  1.94200E+03  2.197E-03  3.000E+00  0.000E+00  0.000E+00  0.000E+00
   2   42   73    17    14    5.0844E+01  0.0000E+00   5.0844E+01  0.000E+00  0.000E+00  0.000E+00  1.94100E+03  2.248E-03  3.000E+00  0.000E+00  0.000E+00  0.000E+00
   2   34   45    18     1    5.4271E+03 -3.7095E+01   5.4642E+03  0.000E+00  0.000E+00  0.000E+00  2.01794E+03  3.845E-02  3.000E+00  1.630E+03  0.000E+00  0.000E+00
   2   34   46    18     2    5.4642E+03 -7.1824E+01   5.5360E+03  0.000E+00  0.000E+00  0.000E+00  2.01104E+03  3.528E-02  3.000E+00  1.350E+03  0.000E+00  0.000E+00
   2   34   47    18     3    5.5360E+03  5.7949E+00   5.5302E+03  0.000E+00  0.000E+00  0.000E+00  2.00703E+03  2.787E-02  3.000E+00  6.750E+02  0.000E+00  0.000E+00
   2   41   74    19     1    9.9443E+03 -2.1754E+02   1.0162E+04  0.000E+00  0.000E+00  0.000E+00  1.93805E+03  5.447E-02  3.000E+00  1.909E+03  0.000E+00  0.000E+00
   2   40   75    19     2    1.0162E+04 -4.9079E+01   1.0211E+04  0.000E+00  0.000E+00  0.000E+00  1.93405E+03  5.490E-02  3.000E+00  9.546E+02  0.000E+00  0.000E+00
   2   39   66    20     1    0.0000E+00  0.0000E+00   0.0000E+00  0.000E+00  0.000E+00  0.000E+00  1.96250E+03  0.000E+00  1.500E+00  8.148E+02  0.000E+00  0.000E+00
   2   39   67    20     2    0.0000E+00  0.0000E+00   0.0000E+00  0.000E+00  0.000E+00  0.000E+00  1.96225E+03  0.000E+00  1.500E+00  6.750E+02  0.000E+00  0.000E+00
   2   40   68    20     3    0.0000E+00  0.0000E+00   0.0000E+00  0.000E+00  0.000E+00  0.000E+00  1.96200E+03  0.000E+00  1.500E+00  9.546E+02  0.000E+00  0.000E+00
   2   41   69    20     4    0.0000E+00  0.0000E+00   0.0000E+00  0.000E+00  0.000E+00  0.000E+00  1.96175E+03  0.000E+00  1.500E+00  8.148E+02  0.000E+00  0.000E+00
   2   42   69    20     5    0.0000E+00  0.0000E+00   0.0000E+00  0.000E+00  0.000E+00  0.000E+00  1.96150E+03  0.000E+00  1.500E+00  8.148E+02  0.000E+00  0.000E+00
   2   43   70    20     6    0.0000E+00  0.0000E+00   0.0000E+00  0.000E+00  0.000E+00  0.000E+00  1.96125E+03  0.000E+00  1.500E+00  8.148E+02  0.000E+00  0.000E+00
   2   38   66    21     1    7.9218E+03 -7.1913E+01   7.9937E+03  0.000E+00  0.000E+00  0.000E+00  1.96005E+03  5.253E-02  3.000E+00  1.350E+03  0.000E+00  0.000E+00
   2   38   67    21     2    7.9937E+03  1.3385E+01   7.9803E+03  0.000E+00  0.000E+00  0.000E+00  1.95805E+03  5.036E-02  3.000E+00  1.630E+03  0.000E+00  0.000E+00
   2   39   68    21     3    7.9803E+03 -1.4432E+01   7.9947E+03  0.000E+00  0.000E+00  0.000E+00  1.95305E+03  4.525E-02  3.000E+00  1.630E+03  0.000E+00  0.000E+00
   2   39   69    21     4    7.9947E+03 -2.1218E+02   8.2069E+03  0.000E+00  0.000E+00  0.000E+00  1.94805E+03  4.800E-02  3.000E+00  1.350E+03  0.000E+00  0.000E+00
   2   39   70    21     5    8.2069E+03  6.4866E+00   8.2004E+03  0.000E+00  0.000E+00  0.000E+00  1.94604E+03  4.114E-02  3.000E+00  6.750E+02  0.000E+00  0.000E+00
   2   38   71    22     1    4.0000E+03 -5.7360E+01   4.0574E+03  0.000E+00  0.000E+00  0.000E+00  1.94556E+03  5.988E-02  3.000E+00  3.259E+02  0.000E+00  0.000E+00
   2   38   72    22     2    4.0574E+03 -4.1168E+01   4.0985E+03  0.000E+00  0.000E+00  0.000E+00  1.94506E+03  6.031E-02  3.000E+00  3.259E+02  0.000E+00  0.000E+00
   2   39   73    22     3    4.0985E+03  1.2277E+02   3.9758E+03  0.000E+00  0.000E+00  0.000E+00  1.94456E+03  5.995E-02  3.000E+00  3.259E+02  0.000E+00  0.000E+00
   2   39   74    22     4    3.9758E+03  8.1000E+01   3.8948E+03  0.000E+00  0.000E+00  0.000E+00  1.94406E+03  5.580E-02  3.000E+00  2.700E+02  8.497E+01 -3.974E+00
   2   39   75    22     5    3.8948E+03  8.1000E+01   3.8138E+03  0.000E+00  0.000E+00  0.000E+00  1.94356E+03  5.511E-02  3.000E+00  2.700E+02  8.453E+01 -3.529E+00
   2   39   76    22     6    3.8138E+03  0.0000E+00   3.8138E+03  0.000E+00  0.000E+00  0.000E+00  1.94305E+03  5.476E-02  3.000E+00  0.000E+00  0.000E+00  0.000E+00
   2   39   71    23     1    4.2277E+03 -1.8876E+02   4.4165E+03  0.000E+00  0.000E+00  0.000E+00  1.94204E+03  3.854E-02  3.000E+00  1.630E+03  0.000E+00  0.000E+00
   2   40   72    23     2    4.4165E+03 -7.5773E+01   4.4923E+03  0.000E+00  0.000E+00  0.000E+00  1.94104E+03  4.196E-02  3.000E+00  1.630E+03  0.000E+00  0.000E+00
   2   40   73    23     3    4.4923E+03 -1.7742E+02   4.6697E+03  0.000E+00  0.000E+00  0.000E+00  1.93804E+03  3.772E-02  3.000E+00  1.350E+03  0.000E+00  0.000E+00
   2   40   74    23     4    4.6697E+03 -7.2366E+01   4.7420E+03  0.000E+00  0.000E+00  0.000E+00  1.93604E+03  4.098E-02  3.000E+00  1.350E+03  0.000E+00  0.000E+00
   2   40   75    23     5    4.7420E+03 -4.7083E+01   4.7891E+03  0.000E+00  0.000E+00  0.000E+00  1.93404E+03  3.656E-02  3.000E+00  6.750E+02  0.000E+00  0.000E+00



1
  VOLUMETRIC BUDGET FOR UNSATURATED ZONE BENEATH STREAMS AT END OF TIME STEP     8 STRESS PERIOD   2
  ------------------------------------------------------------------------------------------------

    CUMULATIVE VOLUMES             L**3    RATES FOR THIS TIME STEP         L**3/T
    ------------------                     ------------------------


          STREAM LOSS =         6963.3169            STREAM LOSS =          934.9398
    CHANGE IN STORAGE =          944.6163      CHANGE IN STORAGE =           43.7659
       RECHARGE TO GW =         6018.7007         RECHARGE TO GW =          891.1739

             TOTAL IN =         6963.3169               TOTAL IN =          934.9398

            TOTAL OUT =         6963.3169              TOTAL OUT =          934.9398

             IN - OUT =            0.0000               IN - OUT =            0.0000

  PERCENT DISCREPANCY =            0.00      PERCENT DISCREPANCY =             0.00



 ***WARNING***NUZTOP IS 3 AND ALL LAYERS  IN ROW           39  AND COLUMN 
          76  ARE INACTIVE.
 UNSATURATED FLOW WILL NOT BE ADDED TO ANY LAYER-- SOME WATER MAY FLOW PAST
  LOWEST LAYER
 ***WARNING***NUZTOP IS 3 AND ALL LAYERS  IN ROW           40  AND COLUMN 
          76  ARE INACTIVE.
 UNSATURATED FLOW WILL NOT BE ADDED TO ANY LAYER-- SOME WATER MAY FLOW PAST
  LOWEST LAYER


UNSATURATED ZONE PACKAGE VOLUMETRIC BUDGET FOR  TIME STEP     8 STRESS PERIOD    2
  ------------------------------------------------------------------------------



     CUMULATIVE VOLUMES      L**3       RATES FOR THIS TIME STEP      L**3/T
     ------------------                 ------------------------

           IN:                                      IN:
           ---                                      ---
        INFILTRATION =       26039.6903          INFILTRATION =       0.0000E+00

          OUT:                                     OUT:
          ----                                     ----
              UZF ET =      202980.4929                UZF ET =       21557.1642
        UZF RECHARGE =      250508.1987          UZF RECHARGE =       25336.9558

            IN - OUT =     -427449.0013              IN - OUT =      -46894.1201

          STORAGE:                                 STORAGE:
          --------                                 --------
      STORAGE CHANGE =     -426471.4609        STORAGE CHANGE =      -46842.1174

 PERCENT DISCREPANCY IS DIFFERENCE BETWEEN IN-OUT MINUS CHANGE IN STORAGE
 DIVIDED BY THE AVERAGE OF IN AND OUT TIMES 100

 PERCENT DISCREPANCY =          -0.05     PERCENT DISCREPANCY =          -0.11






1
  VOLUMETRIC BUDGET FOR ENTIRE MODEL AT END OF TIME STEP    8, STRESS PERIOD   2
  ------------------------------------------------------------------------------

     CUMULATIVE VOLUMES      L**3       RATES FOR THIS TIME STEP      L**3/T
     ------------------                 ------------------------

           IN:                                      IN:
           ---                                      ---
             STORAGE     =        1760.4220               STORAGE     =         417.2632
       CONSTANT HEAD     =          17.4469         CONSTANT HEAD     =       3.8145E-02
      STREAM LEAKAGE     =       36597.1328        STREAM LEAKAGE     =        3866.0840
       LAKE  SEEPAGE     =        2738.4695         LAKE  SEEPAGE     =         261.9141
        UZF RECHARGE     =      250521.7188          UZF RECHARGE     =       25336.9629
               GW ET     =           0.0000                 GW ET     =           0.0000
     SURFACE LEAKAGE     =           0.0000       SURFACE LEAKAGE     =           0.0000

                TOTAL IN =      291635.1875                  TOTAL IN =       29882.2637

          OUT:                                     OUT:
          ----                                     ----
             STORAGE     =      122946.1562               STORAGE     =       12181.7803
       CONSTANT HEAD     =         573.2349         CONSTANT HEAD     =          66.9503
      STREAM LEAKAGE     =      101113.4219        STREAM LEAKAGE     =       12067.6201
       LAKE  SEEPAGE     =       23780.3535         LAKE  SEEPAGE     =        2655.1826
        UZF RECHARGE     =           0.0000          UZF RECHARGE     =           0.0000
               GW ET     =       41117.9531                 GW ET     =        2594.6685
     SURFACE LEAKAGE     =        2650.8235       SURFACE LEAKAGE     =         384.0831

               TOTAL OUT =      292181.9375                 TOTAL OUT =       29950.2852

                IN - OUT =        -546.7500                  IN - OUT =         -68.0215

     PERCENT DISCREPANCY =          -0.19         PERCENT DISCREPANCY =          -0.23






         TIME SUMMARY AT END OF TIME STEP    8 IN STRESS PERIOD    2
                    SECONDS     MINUTES      HOURS       DAYS        YEARS
                    -----------------------------------------------------------
   TIME STEP LENGTH  86400.      1440.0      24.000      1.0000     2.73785E-03
 STRESS PERIOD TIME 6.91200E+05  11520.      192.00      8.0000     2.19028E-02
         TOTAL TIME 7.77600E+05  12960.      216.00      9.0000     2.46407E-02
1
                                                   Max.-Head-Change                         Max.-Flux-Residual
  Residual-Control   Outer-Iter.   Inner-Iter.     Column Row Layer    Maximum-Head-Change  Column Row Layer    Maximum-Flux-Residual          L2-NORM 
          0                 1           4            60   50     2       0.2249820225E+01      68   26    2         0.1572422943E+03      0.4786995817E+03
          0                 2           4            52   57     2       0.3169157965E+01      52   57    2         0.2503817191E+02      0.9133313868E+02
          0                 3           3            52   57     2      -0.2256921088E+00      42   15    2         0.1036154349E+03      0.1345543398E+03
          0                 4           2            42   15     2       0.2713860490E-01      42   15    2         0.2737673727E+02      0.3573965914E+02
          0                 5           2            42   15     2       0.7054359630E-02      42   15    2         0.7115992936E+01      0.9427534491E+01
          0                 6           2            42   15     2       0.1834763763E-02      42   15    2         0.1850103806E+01      0.2537495634E+01
          0                 7           1            42   15     2       0.4774414868E-03      42   15    2         0.4810396091E+00      0.7139387143E+00
          0                 8           1            42   15     2       0.1243077940E-03      42   15    2         0.1250529218E+00      0.2190970804E+00
          0                 9           1             4   59     2       0.4440210587E-04      42   15    2         0.3250189396E-01      0.7647357179E-01

    ------------------------------------------------
       NWT REQUIRED            9 OUTER ITERATIONS 
       AND A TOTAL OF         20 INNER ITERATIONS.
    ------------------------------------------------
                                                   Max.-Head-Change                         Max.-Flux-Residual
  Residual-Control   Outer-Iter.   Inner-Iter.     Column Row Layer    Maximum-Head-Change  Column Row Layer    Maximum-Flux-Residual          L2-NORM 
          0                 1           2            63   38     2       0.1426400013E-01      63   38    2         0.1842456201E+02      0.2374251863E+02
          0                 2           2            64   38     2       0.4259661366E-02      64   38    2         0.5523358949E+01      0.6234000785E+01
          0                 3           2            30   27     2       0.1883146276E-02      64   38    2         0.4715494614E+00      0.6159163474E+00
          0                 4           1            30   27     2       0.1897306155E-03      69   37    2         0.3437375326E-01      0.9299173495E-01
          0                 5           1            30   27     2       0.2000690875E-04      63   38    2         0.2130482188E-01      0.3686776895E-01

    ------------------------------------------------
       NWT REQUIRED            5 OUTER ITERATIONS 
       AND A TOTAL OF          8 INNER ITERATIONS.
    ------------------------------------------------
                                                   Max.-Head-Change                         Max.-Flux-Residual
  Residual-Control   Outer-Iter.   Inner-Iter.     Column Row Layer    Maximum-Head-Change  Column Row Layer    Maximum-Flux-Residual          L2-NORM 
          0                 1           2            30   27     2      -0.1105177724E-02      63   38    2         0.2071138831E-01      0.8631218863E-01
          0                 2           1            30   27     2      -0.9921842776E-03      63   38    2        -0.3863607154E-01      0.1023901245E+00
          0                 3           2            30   27     2       0.1889327118E-02      63   38    2        -0.2811389093E-01      0.1763005449E+00
          0                 4           1            30   27     2       0.1886341783E-03      63   38    2         0.5209870575E-01      0.8450264028E-01
          0                 5           1            30   27     2       0.1983278066E-04      63   38    2         0.2786812268E-01      0.4750039380E-01

    ------------------------------------------------
       NWT REQUIRED            5 OUTER ITERATIONS 
       AND A TOTAL OF          7 INNER ITERATIONS.
    ------------------------------------------------
                                                   Max.-Head-Change                         Max.-Flux-Residual
  Residual-Control   Outer-Iter.   Inner-Iter.     Column Row Layer    Maximum-Head-Change  Column Row Layer    Maximum-Flux-Residual          L2-NORM 
          0                 1           2            30   27     2      -0.1105342643E-02      49   24    2        -0.9810614381E-02      0.8401771260E-01
          0                 2           1            30   27     2      -0.9920303768E-03      63   38    2        -0.4182351299E-01      0.1051924699E+00
          0                 3           2            30   27     2       0.1888996639E-02      63   38    2        -0.2851317751E-01      0.1765874922E+00
          0                 4           1            30   27     2       0.1885832757E-03      63   38    2         0.5202217922E-01      0.8430230595E-01
          0                 5           1            30   27     2       0.1981319162E-04      63   38    2         0.2784219892E-01      0.4743642306E-01

    ------------------------------------------------
       NWT REQUIRED            5 OUTER ITERATIONS 
       AND A TOTAL OF          7 INNER ITERATIONS.
    ------------------------------------------------

 OUTPUT CONTROL FOR STRESS PERIOD    2   TIME STEP    9
    PRINT BUDGET



 STREAM LISTING     PERIOD      2   STEP        9

 LAYER ROW COL. STREAM  RCH.   FLOW INTO    STREAM     FLOW OUT OF   OVRLND.    DIRECT     STREAM      STREAM      STREAM     STREAM  STREAMBED   FLOW TO   CHNG. UNSAT. 
                SEG.NO.  NO.   STRM. RCH.    LOSS       STRM. RCH.   RUNOFF     PRECIP       ET         HEAD        DEPTH      WIDTH  CONDCTNC.   WAT. TAB.

   2   18   62     1     1    0.0000E+00  0.0000E+00   0.0000E+00  0.000E+00  0.000E+00  0.000E+00  2.07300E+03  0.000E+00  3.000E+00  1.909E+03  0.000E+00  0.000E+00
   2   19   63     1     2    0.0000E+00 -4.9747E+01   4.9747E+01  0.000E+00  0.000E+00  0.000E+00  2.06300E+03  1.226E-03  3.000E+00  1.909E+03  0.000E+00  0.000E+00
   2   20   64     1     3    4.9747E+01 -7.5735E+01   1.2548E+02  0.000E+00  0.000E+00  0.000E+00  2.05400E+03  2.857E-03  3.000E+00  1.630E+03  0.000E+00  0.000E+00
   2   21   64     1     4    1.2548E+02 -7.7307E+01   2.0279E+02  0.000E+00  0.000E+00  0.000E+00  2.05101E+03  5.127E-03  3.000E+00  1.630E+03  0.000E+00  0.000E+00
   2   22   65     1     5    2.0279E+02 -9.1860E+00   2.1197E+02  0.000E+00  0.000E+00  0.000E+00  2.04801E+03  5.025E-03  3.000E+00  9.546E+02  0.000E+00  0.000E+00
   2   20   66     2     1    0.0000E+00  0.0000E+00   0.0000E+00  0.000E+00  0.000E+00  0.000E+00  2.05300E+03  0.000E+00  3.000E+00  1.909E+03  0.000E+00  0.000E+00
   2   21   65     2     2    0.0000E+00  0.0000E+00   0.0000E+00  0.000E+00  0.000E+00  0.000E+00  2.05100E+03  0.000E+00  3.000E+00  1.630E+03  0.000E+00  0.000E+00
   2   22   65     2     3    0.0000E+00 -9.5686E+00   9.5686E+00  0.000E+00  0.000E+00  0.000E+00  2.04800E+03  4.718E-04  3.000E+00  6.750E+02  0.000E+00  0.000E+00
   2   22   65     3     1    2.2154E+02 -6.6782E+00   2.2822E+02  0.000E+00  0.000E+00  0.000E+00  2.04800E+03  4.754E-03  3.000E+00  6.750E+02  0.000E+00  0.000E+00
   2   23   65     3     2    2.2822E+02 -7.2278E+01   3.0050E+02  0.000E+00  0.000E+00  0.000E+00  2.04501E+03  8.401E-03  3.000E+00  1.630E+03  0.000E+00  0.000E+00
   2   24   66     3     3    3.0050E+02 -3.6764E+00   3.0418E+02  0.000E+00  0.000E+00  0.000E+00  2.04532E+03  3.172E-01  3.000E+00  1.909E+03  0.000E+00  0.000E+00
   2   25   67     3     4    3.0418E+02  2.8984E+01   2.7519E+02  0.000E+00  0.000E+00  0.000E+00  2.04501E+03  9.307E-03  3.000E+00  1.909E+03  0.000E+00  0.000E+00
   2   26   68     3     5    2.7519E+02  1.0614E+02   1.6905E+02  0.000E+00  0.000E+00  0.000E+00  2.04201E+03  6.942E-03  3.000E+00  1.630E+03  0.000E+00  0.000E+00
   2   27   68     3     6    1.6905E+02  9.7776E+01   7.1278E+01  0.000E+00  0.000E+00  0.000E+00  2.04100E+03  4.252E-03  3.000E+00  1.630E+03  1.721E+01  8.057E+01
   2   28   69     3     7    7.1278E+01  7.1278E+01   0.0000E+00  0.000E+00  0.000E+00  0.000E+00  2.03600E+03  5.679E-04  3.000E+00  1.630E+03  0.000E+00  7.128E+01
   2   29   69     3     8    0.0000E+00  0.0000E+00   0.0000E+00  0.000E+00  0.000E+00  0.000E+00  2.02900E+03  0.000E+00  3.000E+00  1.350E+03  0.000E+00  0.000E+00
   2   30   69     3     9    0.0000E+00  0.0000E+00   0.0000E+00  0.000E+00  0.000E+00  0.000E+00  2.02300E+03  0.000E+00  3.000E+00  1.630E+03  0.000E+00  0.000E+00
   2   31   70     3    10    0.0000E+00  0.0000E+00   0.0000E+00  0.000E+00  0.000E+00  0.000E+00  2.01100E+03  0.000E+00  3.000E+00  1.630E+03  0.000E+00  0.000E+00
   2   32   70     3    11    0.0000E+00 -6.2664E+01   6.2664E+01  0.000E+00  0.000E+00  0.000E+00  2.00500E+03  1.646E-03  3.000E+00  1.350E+03  0.000E+00  0.000E+00
   2   33   70     3    12    6.2664E+01  6.2664E+01   0.0000E+00  0.000E+00  0.000E+00  0.000E+00  2.00300E+03  4.581E-04  3.000E+00  1.630E+03  6.403E+01 -1.369E+00
   2   34   69     3    13    0.0000E+00 -3.3718E+01   3.3718E+01  0.000E+00  0.000E+00  0.000E+00  1.98600E+03  8.075E-04  3.000E+00  1.630E+03  0.000E+00  0.000E+00
   2   35   69     3    14    3.3718E+01 -1.2037E+02   1.5409E+02  0.000E+00  0.000E+00  0.000E+00  1.97300E+03  2.453E-03  3.000E+00  1.350E+03  0.000E+00  0.000E+00
   2   36   69     3    15    1.5409E+02  1.8366E+01   1.3573E+02  0.000E+00  0.000E+00  0.000E+00  1.96700E+03  3.487E-03  3.000E+00  1.350E+03  0.000E+00  0.000E+00
   2   37   69     3    16    1.3573E+02  1.3573E+02   0.0000E+00  0.000E+00  0.000E+00  0.000E+00  1.95900E+03  7.544E-04  3.000E+00  1.350E+03  0.000E+00  0.000E+00
   2   38   69     3    17    0.0000E+00  0.0000E+00   0.0000E+00  0.000E+00  0.000E+00  0.000E+00  1.95300E+03  0.000E+00  3.000E+00  1.630E+03  0.000E+00  0.000E+00
   2   39   70     3    18    0.0000E+00 -2.9889E+01   2.9889E+01  0.000E+00  0.000E+00  0.000E+00  1.94600E+03  8.645E-04  3.000E+00  9.546E+02  0.000E+00  0.000E+00
   2   25   49     4     1    0.0000E+00 -1.3499E+02   1.3499E+02  0.000E+00  0.000E+00  0.000E+00  2.03500E+03  2.166E-03  3.000E+00  1.909E+03  0.000E+00  0.000E+00
   2   26   50     4     2    1.3499E+02 -9.3910E+01   2.2890E+02  0.000E+00  0.000E+00  0.000E+00  2.02600E+03  4.261E-03  3.000E+00  1.909E+03  0.000E+00  0.000E+00
   2   27   51     4     3    2.2890E+02 -8.3153E+01   3.1205E+02  0.000E+00  0.000E+00  0.000E+00  2.01901E+03  5.619E-03  3.000E+00  1.630E+03  0.000E+00  0.000E+00
   2   28   51     4     4    3.1205E+02 -7.6325E+01   3.8838E+02  0.000E+00  0.000E+00  0.000E+00  2.01401E+03  6.930E-03  3.000E+00  1.630E+03  0.000E+00  0.000E+00
   2   29   52     4     5    3.8838E+02 -7.0385E+01   4.5876E+02  0.000E+00  0.000E+00  0.000E+00  2.00901E+03  7.768E-03  3.000E+00  1.630E+03  0.000E+00  0.000E+00
   2   30   52     4     6    4.5876E+02 -5.4764E+01   5.1353E+02  0.000E+00  0.000E+00  0.000E+00  2.00401E+03  7.974E-03  3.000E+00  1.350E+03  0.000E+00  0.000E+00
   2   31   52     4     7    5.1353E+02 -7.7688E+01   5.9122E+02  0.000E+00  0.000E+00  0.000E+00  1.99901E+03  9.582E-03  3.000E+00  1.350E+03  0.000E+00  0.000E+00
   2   32   52     4     8    5.9122E+02  2.0562E+00   5.8916E+02  0.000E+00  0.000E+00  0.000E+00  1.99701E+03  1.014E-02  3.000E+00  1.630E+03  0.000E+00  0.000E+00
   2   33   53     4     9    5.8916E+02  4.1042E+00   5.8505E+02  0.000E+00  0.000E+00  0.000E+00  1.99101E+03  9.909E-03  3.000E+00  1.909E+03  0.000E+00  0.000E+00
   2   34   54     4    10    5.8505E+02  1.4856E+02   4.3650E+02  0.000E+00  0.000E+00  0.000E+00  1.98701E+03  9.407E-03  3.000E+00  1.909E+03  0.000E+00  0.000E+00
   2   35   55     4    11    4.3650E+02  9.7776E+01   3.3872E+02  0.000E+00  0.000E+00  0.000E+00  1.98201E+03  7.158E-03  3.000E+00  1.630E+03  1.005E+02 -2.720E+00
   2   36   55     4    12    3.3872E+02 -8.6988E+01   4.2571E+02  0.000E+00  0.000E+00  0.000E+00  1.97601E+03  6.240E-03  3.000E+00  6.750E+02  0.000E+00  0.000E+00
   2   35   37     5     1    4.7018E+03  0.0000E+00   4.7018E+03  0.000E+00  0.000E+00  0.000E+00  2.05402E+03  2.436E-02  3.000E+00  0.000E+00  0.000E+00  0.000E+00
   2   34   38     5     2    4.7018E+03  0.0000E+00   4.7018E+03  0.000E+00  0.000E+00  0.000E+00  2.04003E+03  2.998E-02  3.000E+00  0.000E+00  0.000E+00  0.000E+00
   2   33   39     5     3    4.7018E+03  0.0000E+00   4.7018E+03  0.000E+00  0.000E+00  0.000E+00  2.03204E+03  3.564E-02  3.000E+00  0.000E+00  0.000E+00  0.000E+00
   2   32   40     5     4    4.7018E+03  0.0000E+00   4.7018E+03  0.000E+00  0.000E+00  0.000E+00  2.03004E+03  3.520E-02  3.000E+00  0.000E+00  0.000E+00  0.000E+00
   2   32   41     5     5    4.7018E+03  0.0000E+00   4.7018E+03  0.000E+00  0.000E+00  0.000E+00  2.02603E+03  2.946E-02  3.000E+00  0.000E+00  0.000E+00  0.000E+00
   2   32   42     5     6    4.7018E+03  0.0000E+00   4.7018E+03  0.000E+00  0.000E+00  0.000E+00  2.02203E+03  3.463E-02  3.000E+00  0.000E+00  0.000E+00  0.000E+00
   2   32   43     5     7    4.7018E+03  0.0000E+00   4.7018E+03  0.000E+00  0.000E+00  0.000E+00  2.02004E+03  3.838E-02  3.000E+00  0.000E+00  0.000E+00  0.000E+00
   2   33   44     5     8    4.7018E+03  0.0000E+00   4.7018E+03  0.000E+00  0.000E+00  0.000E+00  2.01904E+03  3.843E-02  3.000E+00  0.000E+00  0.000E+00  0.000E+00
   2   34   47     6     1    5.6509E+03  4.2075E+00   5.6466E+03  0.000E+00  0.000E+00  0.000E+00  2.00703E+03  2.608E-02  3.000E+00  6.750E+02  0.000E+00  0.000E+00
   2   34   48     6     2    5.6466E+03 -1.2817E+02   5.7748E+03  0.000E+00  0.000E+00  0.000E+00  2.00103E+03  3.420E-02  3.000E+00  1.630E+03  0.000E+00  0.000E+00
   2   35   49     6     3    5.7748E+03 -2.6256E+02   6.0374E+03  0.000E+00  0.000E+00  0.000E+00  1.99404E+03  3.669E-02  3.000E+00  1.630E+03  0.000E+00  0.000E+00
   2   35   50     6     4    6.0374E+03 -1.9148E+02   6.2289E+03  0.000E+00  0.000E+00  0.000E+00  1.99004E+03  4.493E-02  3.000E+00  1.350E+03  0.000E+00  0.000E+00
   2   35   51     6     5    6.2289E+03  2.1100E+01   6.2078E+03  0.000E+00  0.000E+00  0.000E+00  1.98905E+03  4.539E-02  3.000E+00  1.630E+03  0.000E+00  0.000E+00
   2   36   52     6     6    6.2078E+03 -1.2060E+02   6.3284E+03  0.000E+00  0.000E+00  0.000E+00  1.98404E+03  4.038E-02  3.000E+00  1.630E+03  0.000E+00  0.000E+00
   2   36   53     6     7    6.3284E+03 -2.5741E+02   6.5858E+03  0.000E+00  0.000E+00  0.000E+00  1.98005E+03  5.243E-02  3.000E+00  1.630E+03  0.000E+00  0.000E+00
   2   37   54     6     8    6.5858E+03 -4.6867E+01   6.6326E+03  0.000E+00  0.000E+00  0.000E+00  1.98006E+03  5.575E-02  3.000E+00  1.909E+03  0.000E+00  0.000E+00
   2   36   55     6     9    6.6326E+03 -8.8300E+01   6.7209E+03  0.000E+00  0.000E+00  0.000E+00  1.97604E+03  4.261E-02  3.000E+00  9.546E+02  0.000E+00  0.000E+00
   2   36   34     7     1    1.8719E+03 -5.1229E+01   1.9231E+03  0.000E+00  0.000E+00  0.000E+00  2.07701E+03  1.284E-02  3.000E+00  9.546E+02  0.000E+00  0.000E+00
   2   35   35     7     2    1.9231E+03 -1.0904E+02   2.0322E+03  0.000E+00  0.000E+00  0.000E+00  2.06702E+03  1.734E-02  3.000E+00  1.630E+03  0.000E+00  0.000E+00
   2   35   36     7     3    2.0322E+03  2.1661E+01   2.0105E+03  0.000E+00  0.000E+00  0.000E+00  2.06202E+03  1.733E-02  3.000E+00  1.350E+03  0.000E+00  0.000E+00
   2   35   37     7     4    2.0105E+03 -6.2485E+01   2.0730E+03  0.000E+00  0.000E+00  0.000E+00  2.05401E+03  1.331E-02  3.000E+00  6.750E+02  0.000E+00  0.000E+00
   2   52   49     8     1    0.0000E+00 -1.9561E+02   1.9561E+02  0.000E+00  0.000E+00  0.000E+00  2.12100E+03  2.789E-03  3.000E+00  1.909E+03  0.000E+00  0.000E+00
   2   51   48     8     2    1.9561E+02 -2.3783E+02   4.3344E+02  0.000E+00  0.000E+00  0.000E+00  2.11701E+03  8.970E-03  3.000E+00  1.909E+03  0.000E+00  0.000E+00
   2   50   47     8     3    4.3344E+02  1.8973E+02   2.4372E+02  0.000E+00  0.000E+00  0.000E+00  2.11701E+03  7.262E-03  3.000E+00  1.630E+03  0.000E+00  0.000E+00
   2   49   47     8     4    2.4372E+02 -2.6250E+02   5.0622E+02  0.000E+00  0.000E+00  0.000E+00  2.10901E+03  7.220E-03  3.000E+00  1.630E+03  0.000E+00  0.000E+00
   2   48   46     8     5    5.0622E+02  1.3935E+01   4.9228E+02  0.000E+00  0.000E+00  0.000E+00  2.10701E+03  1.129E-02  3.000E+00  1.630E+03  0.000E+00  0.000E+00
   2   47   46     8     6    4.9228E+02  1.6874E+02   3.2355E+02  0.000E+00  0.000E+00  0.000E+00  2.10501E+03  9.448E-03  3.000E+00  1.350E+03  0.000E+00  0.000E+00
   2   46   46     8     7    3.2355E+02  8.1000E+01   2.4255E+02  0.000E+00  0.000E+00  0.000E+00  2.10301E+03  6.719E-03  3.000E+00  1.350E+03  8.339E+01 -2.389E+00
   2   45   46     8     8    2.4255E+02  8.1000E+01   1.6155E+02  0.000E+00  0.000E+00  0.000E+00  2.09900E+03  4.458E-03  3.000E+00  1.350E+03  8.407E+01 -3.065E+00
   2   44   46     8     9    1.6155E+02  8.1000E+01   8.0545E+01  0.000E+00  0.000E+00  0.000E+00  2.09100E+03  2.856E-03  3.000E+00  1.350E+03  8.407E+01 -3.069E+00
   2   43   46     8    10    8.0545E+01  8.0545E+01   0.0000E+00  0.000E+00  0.000E+00  0.000E+00  2.08000E+03  5.033E-04  3.000E+00  1.350E+03  7.953E+01  1.011E+00
   2   42   46     8    11    0.0000E+00  0.0000E+00   0.0000E+00  0.000E+00  0.000E+00  0.000E+00  2.07200E+03  0.000E+00  3.000E+00  1.630E+03  0.000E+00  0.000E+00
   2   41   45     8    12    0.0000E+00  0.0000E+00   0.0000E+00  0.000E+00  0.000E+00  0.000E+00  2.06000E+03  0.000E+00  3.000E+00  1.630E+03  0.000E+00  0.000E+00
   2   40   45     8    13    0.0000E+00  0.0000E+00   0.0000E+00  0.000E+00  0.000E+00  0.000E+00  2.05400E+03  0.000E+00  3.000E+00  1.350E+03  0.000E+00  0.000E+00
   2   39   45     8    14    0.0000E+00  0.0000E+00   0.0000E+00  0.000E+00  0.000E+00  0.000E+00  2.04600E+03  0.000E+00  3.000E+00  1.350E+03  0.000E+00  0.000E+00
   2   38   45     8    15    0.0000E+00  0.0000E+00   0.0000E+00  0.000E+00  0.000E+00  0.000E+00  2.03500E+03  0.000E+00  3.000E+00  1.350E+03  0.000E+00  0.000E+00
   2   37   45     8    16    0.0000E+00 -1.7680E+01   1.7680E+01  0.000E+00  0.000E+00  0.000E+00  2.02700E+03  6.890E-04  3.000E+00  1.630E+03  0.000E+00  0.000E+00
   2   36   46     8    17    1.7680E+01  1.7680E+01   0.0000E+00  0.000E+00  0.000E+00  0.000E+00  2.02100E+03  2.402E-04  3.000E+00  1.630E+03  0.000E+00  1.768E+01
   2   35   46     8    18    0.0000E+00  0.0000E+00   0.0000E+00  0.000E+00  0.000E+00  0.000E+00  2.01400E+03  0.000E+00  3.000E+00  1.630E+03  0.000E+00  0.000E+00
   2   34   47     8    19    0.0000E+00 -1.8360E+01   1.8360E+01  0.000E+00  0.000E+00  0.000E+00  2.00700E+03  6.138E-04  3.000E+00  9.546E+02  0.000E+00  0.000E+00
   2   37   26     9     1    0.0000E+00  0.0000E+00   0.0000E+00  0.000E+00  0.000E+00  0.000E+00  2.14700E+03  0.000E+00  3.000E+00  1.350E+03  0.000E+00  0.000E+00
   2   37   27     9     2    0.0000E+00 -3.9031E+01   3.9031E+01  0.000E+00  0.000E+00  0.000E+00  2.13400E+03  9.144E-04  3.000E+00  1.350E+03  0.000E+00  0.000E+00
   2   37   28     9     3    3.9031E+01 -1.2450E+02   1.6353E+02  0.000E+00  0.000E+00  0.000E+00  2.12500E+03  2.716E-03  3.000E+00  1.630E+03  0.000E+00  0.000E+00
   2   36   29     9     4    1.6353E+02  3.0558E+01   1.3298E+02  0.000E+00  0.000E+00  0.000E+00  2.11500E+03  3.469E-03  3.000E+00  1.630E+03  0.000E+00  0.000E+00
   2   36   30     9     5    1.3298E+02 -6.8309E+01   2.0129E+02  0.000E+00  0.000E+00  0.000E+00  2.10700E+03  3.584E-03  3.000E+00  1.350E+03  0.000E+00  0.000E+00
   2   36   31     9     6    2.0129E+02 -1.9140E+02   3.9269E+02  0.000E+00  0.000E+00  0.000E+00  2.09801E+03  5.153E-03  3.000E+00  1.350E+03  0.000E+00  0.000E+00
   2   36   32     9     7    3.9269E+02 -1.4017E+02   5.3285E+02  0.000E+00  0.000E+00  0.000E+00  2.09101E+03  6.999E-03  3.000E+00  1.350E+03  0.000E+00  0.000E+00
   2   36   33     9     8    5.3285E+02 -1.3984E+02   6.7269E+02  0.000E+00  0.000E+00  0.000E+00  2.08401E+03  8.201E-03  3.000E+00  1.350E+03  0.000E+00  0.000E+00
   2   36   34     9     9    6.7269E+02 -4.0282E+01   7.1297E+02  0.000E+00  0.000E+00  0.000E+00  2.07701E+03  6.832E-03  3.000E+00  6.750E+02  0.000E+00  0.000E+00
   2   58   37    10     1    0.0000E+00  0.0000E+00   0.0000E+00  0.000E+00  0.000E+00  0.000E+00  2.15000E+03  0.000E+00  3.000E+00  1.350E+03  0.000E+00  0.000E+00
   2   57   37    10     2    0.0000E+00 -7.5849E+01   7.5849E+01  0.000E+00  0.000E+00  0.000E+00  2.14700E+03  2.032E-03  3.000E+00  1.630E+03  0.000E+00  0.000E+00
   2   56   38    10     3    7.5849E+01 -7.0925E+00   8.2941E+01  0.000E+00  0.000E+00  0.000E+00  2.14300E+03  2.936E-03  3.000E+00  1.630E+03  0.000E+00  0.000E+00
   2   55   38    10     4    8.2941E+01 -1.7689E+02   2.5983E+02  0.000E+00  0.000E+00  0.000E+00  2.13800E+03  4.561E-03  3.000E+00  1.350E+03  0.000E+00  0.000E+00
   2   54   38    10     5    2.5983E+02 -1.1874E+02   3.7857E+02  0.000E+00  0.000E+00  0.000E+00  2.13501E+03  7.222E-03  3.000E+00  1.350E+03  0.000E+00  0.000E+00
   2   53   38    10     6    3.7857E+02 -1.1161E+02   4.9019E+02  0.000E+00  0.000E+00  0.000E+00  2.13201E+03  8.688E-03  3.000E+00  1.350E+03  0.000E+00  0.000E+00
   2   52   38    10     7    4.9019E+02 -1.7011E+02   6.6030E+02  0.000E+00  0.000E+00  0.000E+00  2.12901E+03  1.229E-02  3.000E+00  1.630E+03  0.000E+00  0.000E+00
   2   51   39    10     8    6.6030E+02  9.3312E+00   6.5097E+02  0.000E+00  0.000E+00  0.000E+00  2.12801E+03  1.329E-02  3.000E+00  1.630E+03  0.000E+00  0.000E+00
   2   50   39    10     9    6.5097E+02 -8.7563E+01   7.3853E+02  0.000E+00  0.000E+00  0.000E+00  2.12501E+03  1.163E-02  3.000E+00  1.630E+03  0.000E+00  0.000E+00
   2   49   38    10    10    7.3853E+02 -1.5789E+02   8.9642E+02  0.000E+00  0.000E+00  0.000E+00  2.12101E+03  1.345E-02  3.000E+00  1.909E+03  0.000E+00  0.000E+00
   2   48   37    10    11    8.9642E+02  1.6517E+01   8.7990E+02  0.000E+00  0.000E+00  0.000E+00  2.11801E+03  1.203E-02  3.000E+00  1.909E+03  0.000E+00  0.000E+00
   2   47   36    10    12    8.7990E+02 -3.4227E+02   1.2222E+03  0.000E+00  0.000E+00  0.000E+00  2.10901E+03  1.269E-02  3.000E+00  1.630E+03  0.000E+00  0.000E+00
   2   46   36    10    13    1.2222E+03 -1.3616E+02   1.3583E+03  0.000E+00  0.000E+00  0.000E+00  2.10602E+03  1.594E-02  3.000E+00  1.350E+03  0.000E+00  0.000E+00
   2   45   36    10    14    1.3583E+03 -1.7092E+02   1.5292E+03  0.000E+00  0.000E+00  0.000E+00  2.10202E+03  1.705E-02  3.000E+00  1.350E+03  0.000E+00  0.000E+00
   2   44   36    10    15    1.5292E+03 -1.0127E+02   1.6305E+03  0.000E+00  0.000E+00  0.000E+00  2.09902E+03  1.885E-02  3.000E+00  1.350E+03  0.000E+00  0.000E+00
   2   43   36    10    16    1.6305E+03 -2.1724E+01   1.6522E+03  0.000E+00  0.000E+00  0.000E+00  2.09602E+03  1.807E-02  3.000E+00  1.630E+03  0.000E+00  0.000E+00
   2   42   37    10    17    1.6522E+03  1.7473E+02   1.4775E+03  0.000E+00  0.000E+00  0.000E+00  2.09001E+03  1.478E-02  3.000E+00  1.630E+03  0.000E+00  0.000E+00
   2   41   37    10    18    1.4775E+03 -2.6541E+02   1.7429E+03  0.000E+00  0.000E+00  0.000E+00  2.08001E+03  1.421E-02  3.000E+00  1.350E+03  0.000E+00  0.000E+00
   2   40   37    10    19    1.7429E+03 -3.2880E+02   2.0717E+03  0.000E+00  0.000E+00  0.000E+00  2.07402E+03  1.978E-02  3.000E+00  1.630E+03  0.000E+00  0.000E+00
   2   39   38    10    20    2.0717E+03 -3.1601E+01   2.1033E+03  0.000E+00  0.000E+00  0.000E+00  2.07102E+03  2.251E-02  3.000E+00  1.630E+03  0.000E+00  0.000E+00
   2   38   38    10    21    2.1033E+03  2.2282E+01   2.0810E+03  0.000E+00  0.000E+00  0.000E+00  2.06702E+03  2.025E-02  3.000E+00  1.630E+03  0.000E+00  0.000E+00
   2   37   37    10    22    2.0810E+03 -2.8907E+02   2.3701E+03  0.000E+00  0.000E+00  0.000E+00  2.06102E+03  2.102E-02  3.000E+00  1.630E+03  0.000E+00  0.000E+00
   2   36   37    10    23    2.3701E+03 -1.9889E+02   2.5690E+03  0.000E+00  0.000E+00  0.000E+00  2.05702E+03  2.353E-02  3.000E+00  1.350E+03  0.000E+00  0.000E+00
   2   35   37    10    24    2.5690E+03 -5.9850E+01   2.6288E+03  0.000E+00  0.000E+00  0.000E+00  2.05402E+03  1.721E-02  3.000E+00  6.750E+02  0.000E+00  0.000E+00
   2   36   55    11     1    7.1466E+03 -6.6722E+01   7.2134E+03  0.000E+00  0.000E+00  0.000E+00  1.97604E+03  3.626E-02  3.000E+00  6.750E+02  0.000E+00  0.000E+00
   2   36   56    11     2    7.2134E+03 -1.1580E+02   7.3292E+03  0.000E+00  0.000E+00  0.000E+00  1.97506E+03  6.137E-02  3.000E+00  1.630E+03  0.000E+00  0.000E+00
   2   37   57    11     3    7.3292E+03 -1.2019E+02   7.4494E+03  0.000E+00  0.000E+00  0.000E+00  1.97306E+03  6.197E-02  3.000E+00  1.630E+03  0.000E+00  0.000E+00
   2   37   58    11     4    7.4494E+03 -7.1651E+01   7.5210E+03  0.000E+00  0.000E+00  0.000E+00  1.97208E+03  8.207E-02  3.000E+00  1.350E+03  0.000E+00  0.000E+00
   2   37   59    11     5    7.5210E+03  3.9499E+01   7.4815E+03  0.000E+00  0.000E+00  0.000E+00  1.97207E+03  6.674E-02  3.000E+00  1.350E+03  0.000E+00  0.000E+00
   2   37   60    11     6    7.4815E+03 -4.2758E+01   7.5243E+03  0.000E+00  0.000E+00  0.000E+00  1.97005E+03  5.365E-02  3.000E+00  1.630E+03  0.000E+00  0.000E+00
   2   38   61    11     7    7.5243E+03 -1.5088E+02   7.6752E+03  0.000E+00  0.000E+00  0.000E+00  1.96705E+03  4.888E-02  3.000E+00  1.630E+03  0.000E+00  0.000E+00
   2   38   62    11     8    7.6752E+03 -1.0313E+02   7.7783E+03  0.000E+00  0.000E+00  0.000E+00  1.96304E+03  4.482E-02  3.000E+00  6.750E+02  0.000E+00  0.000E+00
   2   51   11    12     1    0.0000E+00 -3.8241E+02   3.8241E+02  0.000E+00  0.000E+00  0.000E+00  2.38700E+03  3.990E-03  3.000E+00  1.909E+03  0.000E+00  0.000E+00
   2   50   12    12     2    3.8241E+02 -5.6991E+01   4.3940E+02  0.000E+00  0.000E+00  0.000E+00  2.37501E+03  6.021E-03  3.000E+00  1.630E+03  0.000E+00  0.000E+00
   2   49   12    12     3    4.3940E+02 -3.8280E+02   8.2220E+02  0.000E+00  0.000E+00  0.000E+00  2.36501E+03  8.137E-03  3.000E+00  1.630E+03  0.000E+00  0.000E+00
   2   48   13    12     4    8.2220E+02 -1.7468E+02   9.9688E+02  0.000E+00  0.000E+00  0.000E+00  2.35601E+03  1.088E-02  3.000E+00  1.630E+03  0.000E+00  0.000E+00
   2   48   14    12     5    9.9688E+02 -1.6709E+02   1.1640E+03  0.000E+00  0.000E+00  0.000E+00  2.35001E+03  1.183E-02  3.000E+00  1.630E+03  0.000E+00  0.000E+00
   2   47   15    12     6    1.1640E+03 -1.6626E+02   1.3302E+03  0.000E+00  0.000E+00  0.000E+00  2.34001E+03  1.315E-02  3.000E+00  1.630E+03  0.000E+00  0.000E+00
   2   47   16    12     7    1.3302E+03 -1.3860E+02   1.4688E+03  0.000E+00  0.000E+00  0.000E+00  2.33502E+03  1.546E-02  3.000E+00  1.630E+03  0.000E+00  0.000E+00
   2   46   17    12     8    1.4688E+03  6.9083E+01   1.3997E+03  0.000E+00  0.000E+00  0.000E+00  2.32901E+03  1.460E-02  3.000E+00  1.630E+03  0.000E+00  0.000E+00
   2   46   18    12     9    1.3997E+03  1.5317E+02   1.2466E+03  0.000E+00  0.000E+00  0.000E+00  2.32101E+03  1.133E-02  3.000E+00  1.350E+03  0.000E+00  0.000E+00
   2   46   19    12    10    1.2466E+03 -4.4965E+02   1.6962E+03  0.000E+00  0.000E+00  0.000E+00  2.30601E+03  1.372E-02  3.000E+00  1.350E+03  0.000E+00  0.000E+00
   2   46   20    12    11    1.6962E+03  7.6199E+02   9.3423E+02  0.000E+00  0.000E+00  0.000E+00  2.30601E+03  1.081E-02  3.000E+00  1.630E+03  0.000E+00  0.000E+00
   2   45   21    12    12    9.3423E+02 -3.1599E+02   1.2502E+03  0.000E+00  0.000E+00  0.000E+00  2.27401E+03  8.577E-03  3.000E+00  1.909E+03  0.000E+00  0.000E+00
   2   44   22    12    13    1.2502E+03 -1.7261E+02   1.4228E+03  0.000E+00  0.000E+00  0.000E+00  2.25001E+03  1.048E-02  3.000E+00  1.909E+03  0.000E+00  0.000E+00
   2   43   23    12    14    1.4228E+03  1.4502E+02   1.2778E+03  0.000E+00  0.000E+00  0.000E+00  2.23101E+03  1.062E-02  3.000E+00  1.909E+03  0.000E+00  0.000E+00
   2   42   24    12    15    1.2778E+03 -7.6897E+01   1.3547E+03  0.000E+00  0.000E+00  0.000E+00  2.20801E+03  1.092E-02  3.000E+00  1.630E+03  0.000E+00  0.000E+00
   2   42   25    12    16    1.3547E+03 -1.5106E+01   1.3698E+03  0.000E+00  0.000E+00  0.000E+00  2.20001E+03  1.202E-02  3.000E+00  1.350E+03  0.000E+00  0.000E+00
   2   42   26    12    17    1.3698E+03  1.2369E+02   1.2461E+03  0.000E+00  0.000E+00  0.000E+00  2.18801E+03  1.039E-02  3.000E+00  1.350E+03  0.000E+00  0.000E+00
   2   42   27    12    18    1.2461E+03 -2.6111E+02   1.5072E+03  0.000E+00  0.000E+00  0.000E+00  2.17001E+03  1.082E-02  3.000E+00  1.350E+03  0.000E+00  0.000E+00
   2   42   28    12    19    1.5072E+03 -9.1363E+01   1.5986E+03  0.000E+00  0.000E+00  0.000E+00  2.15901E+03  1.244E-02  3.000E+00  1.630E+03  0.000E+00  0.000E+00
   2   41   29    12    20    1.5986E+03  1.5116E+02   1.4474E+03  0.000E+00  0.000E+00  0.000E+00  2.14201E+03  1.238E-02  3.000E+00  1.909E+03  0.000E+00  0.000E+00
   2   40   30    12    21    1.4474E+03  7.4563E+01   1.3729E+03  0.000E+00  0.000E+00  0.000E+00  2.12701E+03  1.244E-02  3.000E+00  1.909E+03  0.000E+00  0.000E+00
   2   39   31    12    22    1.3729E+03  1.1455E+02   1.2583E+03  0.000E+00  0.000E+00  0.000E+00  2.11501E+03  1.237E-02  3.000E+00  1.909E+03  1.151E+02 -5.816E-01
   2   38   32    12    23    1.2583E+03  1.1455E+02   1.1438E+03  0.000E+00  0.000E+00  0.000E+00  2.10301E+03  1.143E-02  3.000E+00  1.909E+03  1.183E+02 -3.767E+00
   2   37   33    12    24    1.1438E+03  3.9339E+01   1.1044E+03  0.000E+00  0.000E+00  0.000E+00  2.08901E+03  1.098E-02  3.000E+00  1.909E+03  0.000E+00  0.000E+00
   2   36   34    12    25    1.1044E+03 -5.4498E+01   1.1589E+03  0.000E+00  0.000E+00  0.000E+00  2.07701E+03  9.419E-03  3.000E+00  9.546E+02  0.000E+00  0.000E+00
   2   38   62    13     1    7.9644E+03 -1.0989E+02   8.0743E+03  0.000E+00  0.000E+00  0.000E+00  1.96303E+03  3.482E-02  3.000E+00  6.750E+02  0.000E+00  0.000E+00
   2   38   63    13     2    8.0743E+03 -4.9736E+00   8.0793E+03  0.000E+00  0.000E+00  0.000E+00  1.96528E+03  2.277E+00  3.000E+00  1.350E+03  0.000E+00  0.000E+00
   2   38   64    13     3    8.0793E+03  2.9186E+01   8.0501E+03  0.000E+00  0.000E+00  0.000E+00  1.96528E+03  2.275E+00  3.000E+00  1.350E+03  0.000E+00  0.000E+00
   2   38   65    13     4    8.0501E+03 -1.5530E+01   8.0656E+03  0.000E+00  0.000E+00  0.000E+00  1.96306E+03  6.169E-02  3.000E+00  6.750E+02  0.000E+00  0.000E+00
   2   46   61    14     1    0.0000E+00  0.0000E+00   0.0000E+00  0.000E+00  0.000E+00  0.000E+00  2.01700E+03  0.000E+00  3.000E+00  1.350E+03  0.000E+00  0.000E+00
   2   45   61    14     2    0.0000E+00  0.0000E+00   0.0000E+00  0.000E+00  0.000E+00  0.000E+00  2.01000E+03  0.000E+00  3.000E+00  1.350E+03  0.000E+00  0.000E+00
   2   44   61    14     3    0.0000E+00  0.0000E+00   0.0000E+00  0.000E+00  0.000E+00  0.000E+00  2.00600E+03  0.000E+00  3.000E+00  1.350E+03  0.000E+00  0.000E+00
   2   43   61    14     4    0.0000E+00  0.0000E+00   0.0000E+00  0.000E+00  0.000E+00  0.000E+00  1.99900E+03  0.000E+00  3.000E+00  1.350E+03  0.000E+00  0.000E+00
   2   42   61    14     5    0.0000E+00  0.0000E+00   0.0000E+00  0.000E+00  0.000E+00  0.000E+00  1.99300E+03  0.000E+00  3.000E+00  1.350E+03  0.000E+00  0.000E+00
   2   41   61    14     6    0.0000E+00  0.0000E+00   0.0000E+00  0.000E+00  0.000E+00  0.000E+00  1.98500E+03  0.000E+00  3.000E+00  1.350E+03  0.000E+00  0.000E+00
   2   40   61    14     7    0.0000E+00  0.0000E+00   0.0000E+00  0.000E+00  0.000E+00  0.000E+00  1.97800E+03  0.000E+00  3.000E+00  1.350E+03  0.000E+00  0.000E+00
   2   39   61    14     8    0.0000E+00  0.0000E+00   0.0000E+00  0.000E+00  0.000E+00  0.000E+00  1.97300E+03  0.000E+00  3.000E+00  1.630E+03  0.000E+00  0.000E+00
   2   38   62    14     9    0.0000E+00 -1.8610E+02   1.8610E+02  0.000E+00  0.000E+00  0.000E+00  1.96300E+03  2.665E-03  3.000E+00  9.546E+02  0.000E+00  0.000E+00
   2   39   70    15     1    8.3789E+03  1.7292E+00   8.3771E+03  0.000E+00  0.000E+00  0.000E+00  1.94603E+03  3.474E-02  3.000E+00  6.750E+02  0.000E+00  0.000E+00
   2   40   75    16     1    1.5000E+04 -3.0162E+01   1.5030E+04  0.000E+00  0.000E+00  0.000E+00  1.93406E+03  6.245E-02  3.000E+00  6.750E+02  0.000E+00  0.000E+00
   2   40   76    16     2    1.5030E+04  0.0000E+00   1.5030E+04  0.000E+00  0.000E+00  0.000E+00  1.93309E+03  8.968E-02  3.000E+00  0.000E+00  0.000E+00  0.000E+00
   2   55   73    17     1    0.0000E+00  0.0000E+00   0.0000E+00  0.000E+00  0.000E+00  0.000E+00  2.04100E+03  0.000E+00  3.000E+00  1.350E+03  0.000E+00  0.000E+00
   2   54   73    17     2    0.0000E+00  0.0000E+00   0.0000E+00  0.000E+00  0.000E+00  0.000E+00  2.02900E+03  0.000E+00  3.000E+00  1.350E+03  0.000E+00  0.000E+00
   2   53   73    17     3    0.0000E+00  0.0000E+00   0.0000E+00  0.000E+00  0.000E+00  0.000E+00  2.01700E+03  0.000E+00  3.000E+00  1.350E+03  0.000E+00  0.000E+00
   2   52   73    17     4    0.0000E+00  0.0000E+00   0.0000E+00  0.000E+00  0.000E+00  0.000E+00  2.01000E+03  0.000E+00  3.000E+00  1.630E+03  0.000E+00  0.000E+00
   2   51   72    17     5    0.0000E+00  0.0000E+00   0.0000E+00  0.000E+00  0.000E+00  0.000E+00  1.99800E+03  0.000E+00  3.000E+00  1.630E+03  0.000E+00  0.000E+00
   2   50   72    17     6    0.0000E+00 -5.1578E+01   5.1578E+01  0.000E+00  0.000E+00  0.000E+00  1.97500E+03  1.296E-03  3.000E+00  1.350E+03  0.000E+00  0.000E+00
   2   49   72    17     7    5.1578E+01  0.0000E+00   5.1578E+01  0.000E+00  0.000E+00  0.000E+00  1.95600E+03  1.880E-03  3.000E+00  0.000E+00  0.000E+00  0.000E+00
   2   48   72    17     8    5.1578E+01  0.0000E+00   5.1578E+01  0.000E+00  0.000E+00  0.000E+00  1.95200E+03  1.881E-03  3.000E+00  0.000E+00  0.000E+00  0.000E+00
   2   47   72    17     9    5.1578E+01  0.0000E+00   5.1578E+01  0.000E+00  0.000E+00  0.000E+00  1.95000E+03  1.912E-03  3.000E+00  0.000E+00  0.000E+00  0.000E+00
   2   46   72    17    10    5.1578E+01  0.0000E+00   5.1578E+01  0.000E+00  0.000E+00  0.000E+00  1.94800E+03  1.959E-03  3.000E+00  0.000E+00  0.000E+00  0.000E+00
   2   45   72    17    11    5.1578E+01  0.0000E+00   5.1578E+01  0.000E+00  0.000E+00  0.000E+00  1.94400E+03  1.984E-03  3.000E+00  0.000E+00  0.000E+00  0.000E+00
   2   44   73    17    12    5.1578E+01  0.0000E+00   5.1578E+01  0.000E+00  0.000E+00  0.000E+00  1.94200E+03  2.028E-03  3.000E+00  0.000E+00  0.000E+00  0.000E+00
   2   43   73    17    13    5.1578E+01  0.0000E+00   5.1578E+01  0.000E+00  0.000E+00  0.000E+00  1.94200E+03  2.215E-03  3.000E+00  0.000E+00  0.000E+00  0.000E+00
   2   42   73    17    14    5.1578E+01  0.0000E+00   5.1578E+01  0.000E+00  0.000E+00  0.000E+00  1.94100E+03  2.267E-03  3.000E+00  0.000E+00  0.000E+00  0.000E+00
   2   34   45    18     1    5.5281E+03 -3.7330E+01   5.5654E+03  0.000E+00  0.000E+00  0.000E+00  2.01794E+03  3.887E-02  3.000E+00  1.630E+03  0.000E+00  0.000E+00
   2   34   46    18     2    5.5654E+03 -7.2688E+01   5.6381E+03  0.000E+00  0.000E+00  0.000E+00  2.01104E+03  3.567E-02  3.000E+00  1.350E+03  0.000E+00  0.000E+00
   2   34   47    18     3    5.6381E+03  5.6219E+00   5.6325E+03  0.000E+00  0.000E+00  0.000E+00  2.00703E+03  2.818E-02  3.000E+00  6.750E+02  0.000E+00  0.000E+00
   2   41   74    19     1    9.7893E+03 -2.1641E+02   1.0006E+04  0.000E+00  0.000E+00  0.000E+00  1.93805E+03  5.396E-02  3.000E+00  1.909E+03  0.000E+00  0.000E+00
   2   40   75    19     2    1.0006E+04 -5.0343E+01   1.0056E+04  0.000E+00  0.000E+00  0.000E+00  1.93405E+03  5.440E-02  3.000E+00  9.546E+02  0.000E+00  0.000E+00
   2   39   66    20     1    0.0000E+00  0.0000E+00   0.0000E+00  0.000E+00  0.000E+00  0.000E+00  1.96250E+03  0.000E+00  1.500E+00  8.148E+02  0.000E+00  0.000E+00
   2   39   67    20     2    0.0000E+00  0.0000E+00   0.0000E+00  0.000E+00  0.000E+00  0.000E+00  1.96225E+03  0.000E+00  1.500E+00  6.750E+02  0.000E+00  0.000E+00
   2   40   68    20     3    0.0000E+00  0.0000E+00   0.0000E+00  0.000E+00  0.000E+00  0.000E+00  1.96200E+03  0.000E+00  1.500E+00  9.546E+02  0.000E+00  0.000E+00
   2   41   69    20     4    0.0000E+00  0.0000E+00   0.0000E+00  0.000E+00  0.000E+00  0.000E+00  1.96175E+03  0.000E+00  1.500E+00  8.148E+02  0.000E+00  0.000E+00
   2   42   69    20     5    0.0000E+00  0.0000E+00   0.0000E+00  0.000E+00  0.000E+00  0.000E+00  1.96150E+03  0.000E+00  1.500E+00  8.148E+02  0.000E+00  0.000E+00
   2   43   70    20     6    0.0000E+00  0.0000E+00   0.0000E+00  0.000E+00  0.000E+00  0.000E+00  1.96125E+03  0.000E+00  1.500E+00  8.148E+02  0.000E+00  0.000E+00
   2   38   66    21     1    8.0656E+03 -7.2757E+01   8.1384E+03  0.000E+00  0.000E+00  0.000E+00  1.96005E+03  5.310E-02  3.000E+00  1.350E+03  0.000E+00  0.000E+00
   2   38   67    21     2    8.1384E+03  1.2077E+01   8.1263E+03  0.000E+00  0.000E+00  0.000E+00  1.95805E+03  5.090E-02  3.000E+00  1.630E+03  0.000E+00  0.000E+00
   2   39   68    21     3    8.1263E+03 -1.5691E+01   8.1420E+03  0.000E+00  0.000E+00  0.000E+00  1.95305E+03  4.575E-02  3.000E+00  1.630E+03  0.000E+00  0.000E+00
   2   39   69    21     4    8.1420E+03 -2.1342E+02   8.3554E+03  0.000E+00  0.000E+00  0.000E+00  1.94805E+03  4.852E-02  3.000E+00  1.350E+03  0.000E+00  0.000E+00
   2   39   70    21     5    8.3554E+03  6.3531E+00   8.3490E+03  0.000E+00  0.000E+00  0.000E+00  1.94604E+03  4.159E-02  3.000E+00  6.750E+02  0.000E+00  0.000E+00
   2   38   71    22     1    4.0000E+03 -5.7838E+01   4.0578E+03  0.000E+00  0.000E+00  0.000E+00  1.94556E+03  5.988E-02  3.000E+00  3.259E+02  0.000E+00  0.000E+00
   2   38   72    22     2    4.0578E+03 -4.1607E+01   4.0994E+03  0.000E+00  0.000E+00  0.000E+00  1.94506E+03  6.032E-02  3.000E+00  3.259E+02  0.000E+00  0.000E+00
   2   39   73    22     3    4.0994E+03  1.2068E+02   3.9788E+03  0.000E+00  0.000E+00  0.000E+00  1.94456E+03  5.997E-02  3.000E+00  3.259E+02  0.000E+00  0.000E+00
   2   39   74    22     4    3.9788E+03  8.1000E+01   3.8978E+03  0.000E+00  0.000E+00  0.000E+00  1.94406E+03  5.582E-02  3.000E+00  2.700E+02  8.475E+01 -3.755E+00
   2   39   75    22     5    3.8978E+03  8.1000E+01   3.8168E+03  0.000E+00  0.000E+00  0.000E+00  1.94356E+03  5.513E-02  3.000E+00  2.700E+02  8.439E+01 -3.394E+00
   2   39   76    22     6    3.8168E+03  0.0000E+00   3.8168E+03  0.000E+00  0.000E+00  0.000E+00  1.94305E+03  5.478E-02  3.000E+00  0.000E+00  0.000E+00  0.000E+00
   2   39   71    23     1    4.3771E+03 -1.9024E+02   4.5674E+03  0.000E+00  0.000E+00  0.000E+00  1.94204E+03  3.934E-02  3.000E+00  1.630E+03  0.000E+00  0.000E+00
   2   40   72    23     2    4.5674E+03 -7.6944E+01   4.6443E+03  0.000E+00  0.000E+00  0.000E+00  1.94104E+03  4.281E-02  3.000E+00  1.630E+03  0.000E+00  0.000E+00
   2   40   73    23     3    4.6443E+03 -1.7809E+02   4.8224E+03  0.000E+00  0.000E+00  0.000E+00  1.93804E+03  3.846E-02  3.000E+00  1.350E+03  0.000E+00  0.000E+00
   2   40   74    23     4    4.8224E+03 -7.4231E+01   4.8967E+03  0.000E+00  0.000E+00  0.000E+00  1.93604E+03  4.178E-02  3.000E+00  1.350E+03  0.000E+00  0.000E+00
   2   40   75    23     5    4.8967E+03 -4.7159E+01   4.9438E+03  0.000E+00  0.000E+00  0.000E+00  1.93404E+03  3.727E-02  3.000E+00  6.750E+02  0.000E+00  0.000E+00



1
  VOLUMETRIC BUDGET FOR UNSATURATED ZONE BENEATH STREAMS AT END OF TIME STEP     9 STRESS PERIOD   2
  ------------------------------------------------------------------------------------------------

    CUMULATIVE VOLUMES             L**3    RATES FOR THIS TIME STEP         L**3/T
    ------------------                     ------------------------


          STREAM LOSS =         8025.1396            STREAM LOSS =         1061.8219
    CHANGE IN STORAGE =         1091.0417      CHANGE IN STORAGE =          146.4254
       RECHARGE TO GW =         6934.0977         RECHARGE TO GW =          915.3965

             TOTAL IN =         8025.1396               TOTAL IN =         1061.8219

            TOTAL OUT =         8025.1396              TOTAL OUT =         1061.8220

             IN - OUT =            0.0000               IN - OUT =       -1.2207E-04

  PERCENT DISCREPANCY =            0.00      PERCENT DISCREPANCY =            -0.00



 ***WARNING***NUZTOP IS 3 AND ALL LAYERS  IN ROW           39  AND COLUMN 
          76  ARE INACTIVE.
 UNSATURATED FLOW WILL NOT BE ADDED TO ANY LAYER-- SOME WATER MAY FLOW PAST
  LOWEST LAYER
 ***WARNING***NUZTOP IS 3 AND ALL LAYERS  IN ROW           40  AND COLUMN 
          76  ARE INACTIVE.
 UNSATURATED FLOW WILL NOT BE ADDED TO ANY LAYER-- SOME WATER MAY FLOW PAST
  LOWEST LAYER


UNSATURATED ZONE PACKAGE VOLUMETRIC BUDGET FOR  TIME STEP     9 STRESS PERIOD    2
  ------------------------------------------------------------------------------



     CUMULATIVE VOLUMES      L**3       RATES FOR THIS TIME STEP      L**3/T
     ------------------                 ------------------------

           IN:                                      IN:
           ---                                      ---
        INFILTRATION =       26039.6903          INFILTRATION =       0.0000E+00

          OUT:                                     OUT:
          ----                                     ----
              UZF ET =      221945.2040                UZF ET =       18964.7111
        UZF RECHARGE =      275476.4497          UZF RECHARGE =       24968.2510

            IN - OUT =     -471381.9635              IN - OUT =      -43932.9622

          STORAGE:                                 STORAGE:
          --------                                 --------
      STORAGE CHANGE =     -470362.5971        STORAGE CHANGE =      -43891.1362

 PERCENT DISCREPANCY IS DIFFERENCE BETWEEN IN-OUT MINUS CHANGE IN STORAGE
 DIVIDED BY THE AVERAGE OF IN AND OUT TIMES 100

 PERCENT DISCREPANCY =          -0.05     PERCENT DISCREPANCY =          -0.10






1
  VOLUMETRIC BUDGET FOR ENTIRE MODEL AT END OF TIME STEP    9, STRESS PERIOD   2
  ------------------------------------------------------------------------------

     CUMULATIVE VOLUMES      L**3       RATES FOR THIS TIME STEP      L**3/T
     ------------------                 ------------------------

           IN:                                      IN:
           ---                                      ---
             STORAGE     =        2235.1011               STORAGE     =         474.6790
       CONSTANT HEAD     =          17.4761         CONSTANT HEAD     =       2.9200E-02
      STREAM LEAKAGE     =       40362.4297        STREAM LEAKAGE     =        3765.2964
       LAKE  SEEPAGE     =        2992.5955         LAKE  SEEPAGE     =         254.1260
        UZF RECHARGE     =      275489.9688          UZF RECHARGE     =       24968.2578
               GW ET     =           0.0000                 GW ET     =           0.0000
     SURFACE LEAKAGE     =           0.0000       SURFACE LEAKAGE     =           0.0000

                TOTAL IN =      321097.5625                  TOTAL IN =       29462.3906

          OUT:                                     OUT:
          ----                                     ----
             STORAGE     =      134788.7812               STORAGE     =       11842.6318
       CONSTANT HEAD     =         641.2901         CONSTANT HEAD     =          68.0553
      STREAM LEAKAGE     =      113307.9844        STREAM LEAKAGE     =       12194.5645
       LAKE  SEEPAGE     =       26440.1523         LAKE  SEEPAGE     =        2659.7991
        UZF RECHARGE     =           0.0000          UZF RECHARGE     =           0.0000
               GW ET     =       43478.9609                 GW ET     =        2361.0071
     SURFACE LEAKAGE     =        3054.7595       SURFACE LEAKAGE     =         403.9361

               TOTAL OUT =      321711.9375                 TOTAL OUT =       29529.9922

                IN - OUT =        -614.3750                  IN - OUT =         -67.6016

     PERCENT DISCREPANCY =          -0.19         PERCENT DISCREPANCY =          -0.23






         TIME SUMMARY AT END OF TIME STEP    9 IN STRESS PERIOD    2
                    SECONDS     MINUTES      HOURS       DAYS        YEARS
                    -----------------------------------------------------------
   TIME STEP LENGTH  86400.      1440.0      24.000      1.0000     2.73785E-03
 STRESS PERIOD TIME 7.77600E+05  12960.      216.00      9.0000     2.46407E-02
         TOTAL TIME 8.64000E+05  14400.      240.00      10.000     2.73785E-02
1
                                                   Max.-Head-Change                         Max.-Flux-Residual
  Residual-Control   Outer-Iter.   Inner-Iter.     Column Row Layer    Maximum-Head-Change  Column Row Layer    Maximum-Flux-Residual          L2-NORM 
          0                 1           5            68   68     2       0.2945264152E+01      69   37    2         0.1076737703E+03      0.4625909036E+03
          0                 2           3            59   48     2       0.1781355848E+01      69   37    2        -0.6573014701E+02      0.1337685557E+03
          0                 3           3            42   15     2      -0.1231522220E+00      54   62    2         0.5986564629E+02      0.6996194972E+02
          0                 4           2            54   62     2       0.1727648294E-01      54   62    2         0.1555601424E+02      0.1950888194E+02
          0                 5           2            54   62     2       0.4491971531E-02      54   62    2         0.4044383610E+01      0.5359530742E+01
          0                 6           2            54   62     2       0.1168311183E-02      54   62    2         0.1051686923E+01      0.1529729404E+01
          0                 7           1            54   62     2       0.3039729137E-03      54   62    2         0.2735011307E+00      0.4785957864E+00
          0                 8           1             4   59     2       0.1006247665E-03      54   62    2         0.7109358328E-01      0.1688808863E+00
          0                 9           1             4   59     2       0.4550781688E-04       3   59    2         0.2298579559E-01      0.6618230902E-01

    ------------------------------------------------
       NWT REQUIRED            9 OUTER ITERATIONS 
       AND A TOTAL OF         20 INNER ITERATIONS.
    ------------------------------------------------
                                                   Max.-Head-Change                         Max.-Flux-Residual
  Residual-Control   Outer-Iter.   Inner-Iter.     Column Row Layer    Maximum-Head-Change  Column Row Layer    Maximum-Flux-Residual          L2-NORM 
          0                 1           2            63   38     2       0.1488805099E-01      63   38    2         0.1923023648E+02      0.2479634093E+02
          0                 2           2            64   38     2       0.4420248320E-02      64   38    2         0.5731659135E+01      0.6467893938E+01
          0                 3           2            30   27     2       0.1429845554E-02      64   38    2         0.4841976411E+00      0.6197196974E+00
          0                 4           1            30   27     2       0.1440943092E-03      75   40    2         0.3293775308E-01      0.7809320755E-01
          0                 5           1            30   27     2       0.1522081870E-04      66   24    2         0.1546355207E-01      0.2862503287E-01

    ------------------------------------------------
       NWT REQUIRED            5 OUTER ITERATIONS 
       AND A TOTAL OF          8 INNER ITERATIONS.
    ------------------------------------------------
                                                   Max.-Head-Change                         Max.-Flux-Residual
  Residual-Control   Outer-Iter.   Inner-Iter.     Column Row Layer    Maximum-Head-Change  Column Row Layer    Maximum-Flux-Residual          L2-NORM 
          0                 1           1            30   27     2      -0.8414603643E-03      63   38    2         0.3678322537E-01      0.7853177049E-01
          0                 2           1            30   27     2      -0.7532443740E-03      63   38    2        -0.2672596735E-01      0.7588605996E-01
          0                 3           2            30   27     2       0.1436599651E-02      63   38    2        -0.2098793432E-01      0.1368152720E+00
          0                 4           1            30   27     2       0.1434299247E-03      63   38    2         0.3984684284E-01      0.6411602649E-01
          0                 5           1            30   27     2       0.1505295917E-04      63   38    2         0.2153542607E-01      0.3781228390E-01

    ------------------------------------------------
       NWT REQUIRED            5 OUTER ITERATIONS 
       AND A TOTAL OF          6 INNER ITERATIONS.
    ------------------------------------------------
                                                   Max.-Head-Change                         Max.-Flux-Residual
  Residual-Control   Outer-Iter.   Inner-Iter.     Column Row Layer    Maximum-Head-Change  Column Row Layer    Maximum-Flux-Residual          L2-NORM 
          0                 1           1            30   27     2      -0.8434481548E-03      49   24    2        -0.7848821564E-02      0.6480195558E-01
          0                 2           1            30   27     2      -0.7505116322E-03      63   38    2        -0.3195835769E-01      0.8065664438E-01
          0                 3           2            30   27     2       0.1435625054E-02      63   38    2        -0.2156981662E-01      0.1372022664E+00
          0                 4           1            30   27     2       0.1433230980E-03      63   38    2         0.3973497009E-01      0.6376525583E-01
          0                 5           1            30   27     2       0.1502935548E-04      63   38    2         0.2149735282E-01      0.3767893670E-01

    ------------------------------------------------
       NWT REQUIRED            5 OUTER ITERATIONS 
       AND A TOTAL OF          6 INNER ITERATIONS.
    ------------------------------------------------

 OUTPUT CONTROL FOR STRESS PERIOD    2   TIME STEP   10
    PRINT BUDGET



 STREAM LISTING     PERIOD      2   STEP       10

 LAYER ROW COL. STREAM  RCH.   FLOW INTO    STREAM     FLOW OUT OF   OVRLND.    DIRECT     STREAM      STREAM      STREAM     STREAM  STREAMBED   FLOW TO   CHNG. UNSAT. 
                SEG.NO.  NO.   STRM. RCH.    LOSS       STRM. RCH.   RUNOFF     PRECIP       ET         HEAD        DEPTH      WIDTH  CONDCTNC.   WAT. TAB.

   2   18   62     1     1    0.0000E+00  0.0000E+00   0.0000E+00  0.000E+00  0.000E+00  0.000E+00  2.07300E+03  0.000E+00  3.000E+00  1.909E+03  0.000E+00  0.000E+00
   2   19   63     1     2    0.0000E+00 -5.0942E+01   5.0942E+01  0.000E+00  0.000E+00  0.000E+00  2.06300E+03  1.244E-03  3.000E+00  1.909E+03  0.000E+00  0.000E+00
   2   20   64     1     3    5.0942E+01 -7.6904E+01   1.2785E+02  0.000E+00  0.000E+00  0.000E+00  2.05400E+03  2.892E-03  3.000E+00  1.630E+03  0.000E+00  0.000E+00
   2   21   64     1     4    1.2785E+02 -7.8544E+01   2.0639E+02  0.000E+00  0.000E+00  0.000E+00  2.05101E+03  5.182E-03  3.000E+00  1.630E+03  0.000E+00  0.000E+00
   2   22   65     1     5    2.0639E+02 -9.6921E+00   2.1608E+02  0.000E+00  0.000E+00  0.000E+00  2.04801E+03  5.080E-03  3.000E+00  9.546E+02  0.000E+00  0.000E+00
   2   20   66     2     1    0.0000E+00  0.0000E+00   0.0000E+00  0.000E+00  0.000E+00  0.000E+00  2.05300E+03  0.000E+00  3.000E+00  1.909E+03  0.000E+00  0.000E+00
   2   21   65     2     2    0.0000E+00  0.0000E+00   0.0000E+00  0.000E+00  0.000E+00  0.000E+00  2.05100E+03  0.000E+00  3.000E+00  1.630E+03  0.000E+00  0.000E+00
   2   22   65     2     3    0.0000E+00 -9.9564E+00   9.9564E+00  0.000E+00  0.000E+00  0.000E+00  2.04800E+03  4.832E-04  3.000E+00  6.750E+02  0.000E+00  0.000E+00
   2   22   65     3     1    2.2604E+02 -7.0338E+00   2.3307E+02  0.000E+00  0.000E+00  0.000E+00  2.04800E+03  4.813E-03  3.000E+00  6.750E+02  0.000E+00  0.000E+00
   2   23   65     3     2    2.3307E+02 -7.3666E+01   3.0674E+02  0.000E+00  0.000E+00  0.000E+00  2.04501E+03  8.506E-03  3.000E+00  1.630E+03  0.000E+00  0.000E+00
   2   24   66     3     3    3.0674E+02 -5.0298E+00   3.1177E+02  0.000E+00  0.000E+00  0.000E+00  2.04532E+03  3.215E-01  3.000E+00  1.909E+03  0.000E+00  0.000E+00
   2   25   67     3     4    3.1177E+02  2.6566E+01   2.8520E+02  0.000E+00  0.000E+00  0.000E+00  2.04501E+03  9.475E-03  3.000E+00  1.909E+03  0.000E+00  0.000E+00
   2   26   68     3     5    2.8520E+02  6.7333E+01   2.1787E+02  0.000E+00  0.000E+00  0.000E+00  2.04201E+03  7.480E-03  3.000E+00  1.630E+03  0.000E+00  0.000E+00
   2   27   68     3     6    2.1787E+02  9.7776E+01   1.2009E+02  0.000E+00  0.000E+00  0.000E+00  2.04101E+03  5.217E-03  3.000E+00  1.630E+03  1.040E+02 -6.205E+00
   2   28   69     3     7    1.2009E+02  9.7776E+01   2.2318E+01  0.000E+00  0.000E+00  0.000E+00  2.03600E+03  2.523E-03  3.000E+00  1.630E+03  0.000E+00  9.778E+01
   2   29   69     3     8    2.2318E+01  2.2318E+01   0.0000E+00  0.000E+00  0.000E+00  0.000E+00  2.02900E+03  2.610E-04  3.000E+00  1.350E+03  0.000E+00  2.232E+01
   2   30   69     3     9    0.0000E+00  0.0000E+00   0.0000E+00  0.000E+00  0.000E+00  0.000E+00  2.02300E+03  0.000E+00  3.000E+00  1.630E+03  0.000E+00  0.000E+00
   2   31   70     3    10    0.0000E+00  0.0000E+00   0.0000E+00  0.000E+00  0.000E+00  0.000E+00  2.01100E+03  0.000E+00  3.000E+00  1.630E+03  0.000E+00  0.000E+00
   2   32   70     3    11    0.0000E+00 -6.5154E+01   6.5154E+01  0.000E+00  0.000E+00  0.000E+00  2.00500E+03  1.684E-03  3.000E+00  1.350E+03  0.000E+00  0.000E+00
   2   33   70     3    12    6.5154E+01  6.5154E+01   0.0000E+00  0.000E+00  0.000E+00  0.000E+00  2.00300E+03  4.689E-04  3.000E+00  1.630E+03  6.656E+01 -1.404E+00
   2   34   69     3    13    0.0000E+00 -3.4893E+01   3.4893E+01  0.000E+00  0.000E+00  0.000E+00  1.98600E+03  8.242E-04  3.000E+00  1.630E+03  0.000E+00  0.000E+00
   2   35   69     3    14    3.4893E+01 -1.2133E+02   1.5622E+02  0.000E+00  0.000E+00  0.000E+00  1.97300E+03  2.478E-03  3.000E+00  1.350E+03  0.000E+00  0.000E+00
   2   36   69     3    15    1.5622E+02  1.6573E+01   1.3965E+02  0.000E+00  0.000E+00  0.000E+00  1.96700E+03  3.531E-03  3.000E+00  1.350E+03  0.000E+00  0.000E+00
   2   37   69     3    16    1.3965E+02  1.1068E+02   2.8968E+01  0.000E+00  0.000E+00  0.000E+00  1.95900E+03  2.520E-03  3.000E+00  1.350E+03  0.000E+00  0.000E+00
   2   38   69     3    17    2.8968E+01  2.8968E+01   0.0000E+00  0.000E+00  0.000E+00  0.000E+00  1.95300E+03  3.231E-04  3.000E+00  1.630E+03  0.000E+00  0.000E+00
   2   39   70     3    18    0.0000E+00 -3.0534E+01   3.0534E+01  0.000E+00  0.000E+00  0.000E+00  1.94600E+03  8.756E-04  3.000E+00  9.546E+02  0.000E+00  0.000E+00
   2   25   49     4     1    0.0000E+00 -1.3698E+02   1.3698E+02  0.000E+00  0.000E+00  0.000E+00  2.03500E+03  2.185E-03  3.000E+00  1.909E+03  0.000E+00  0.000E+00
   2   26   50     4     2    1.3698E+02 -9.5122E+01   2.3210E+02  0.000E+00  0.000E+00  0.000E+00  2.02600E+03  4.297E-03  3.000E+00  1.909E+03  0.000E+00  0.000E+00
   2   27   51     4     3    2.3210E+02 -8.4352E+01   3.1645E+02  0.000E+00  0.000E+00  0.000E+00  2.01901E+03  5.667E-03  3.000E+00  1.630E+03  0.000E+00  0.000E+00
   2   28   51     4     4    3.1645E+02 -7.7235E+01   3.9369E+02  0.000E+00  0.000E+00  0.000E+00  2.01401E+03  6.988E-03  3.000E+00  1.630E+03  0.000E+00  0.000E+00
   2   29   52     4     5    3.9369E+02 -7.1294E+01   4.6498E+02  0.000E+00  0.000E+00  0.000E+00  2.00901E+03  7.831E-03  3.000E+00  1.630E+03  0.000E+00  0.000E+00
   2   30   52     4     6    4.6498E+02 -5.5680E+01   5.2066E+02  0.000E+00  0.000E+00  0.000E+00  2.00401E+03  8.040E-03  3.000E+00  1.350E+03  0.000E+00  0.000E+00
   2   31   52     4     7    5.2066E+02 -7.8608E+01   5.9927E+02  0.000E+00  0.000E+00  0.000E+00  1.99901E+03  9.661E-03  3.000E+00  1.350E+03  0.000E+00  0.000E+00
   2   32   52     4     8    5.9927E+02  1.1091E+00   5.9816E+02  0.000E+00  0.000E+00  0.000E+00  1.99701E+03  1.022E-02  3.000E+00  1.630E+03  0.000E+00  0.000E+00
   2   33   53     4     9    5.9816E+02  2.9044E+00   5.9525E+02  0.000E+00  0.000E+00  0.000E+00  1.99101E+03  1.001E-02  3.000E+00  1.909E+03  0.000E+00  0.000E+00
   2   34   54     4    10    5.9525E+02  1.4574E+02   4.4952E+02  0.000E+00  0.000E+00  0.000E+00  1.98701E+03  9.535E-03  3.000E+00  1.909E+03  0.000E+00  0.000E+00
   2   35   55     4    11    4.4952E+02  9.7776E+01   3.5174E+02  0.000E+00  0.000E+00  0.000E+00  1.98201E+03  7.301E-03  3.000E+00  1.630E+03  1.003E+02 -2.497E+00
   2   36   55     4    12    3.5174E+02 -8.7990E+01   4.3973E+02  0.000E+00  0.000E+00  0.000E+00  1.97601E+03  6.371E-03  3.000E+00  6.750E+02  0.000E+00  0.000E+00
   2   35   37     5     1    4.7702E+03  0.0000E+00   4.7702E+03  0.000E+00  0.000E+00  0.000E+00  2.05402E+03  2.457E-02  3.000E+00  0.000E+00  0.000E+00  0.000E+00
   2   34   38     5     2    4.7702E+03  0.0000E+00   4.7702E+03  0.000E+00  0.000E+00  0.000E+00  2.04003E+03  3.025E-02  3.000E+00  0.000E+00  0.000E+00  0.000E+00
   2   33   39     5     3    4.7702E+03  0.0000E+00   4.7702E+03  0.000E+00  0.000E+00  0.000E+00  2.03204E+03  3.594E-02  3.000E+00  0.000E+00  0.000E+00  0.000E+00
   2   32   40     5     4    4.7702E+03  0.0000E+00   4.7702E+03  0.000E+00  0.000E+00  0.000E+00  2.03004E+03  3.551E-02  3.000E+00  0.000E+00  0.000E+00  0.000E+00
   2   32   41     5     5    4.7702E+03  0.0000E+00   4.7702E+03  0.000E+00  0.000E+00  0.000E+00  2.02603E+03  2.972E-02  3.000E+00  0.000E+00  0.000E+00  0.000E+00
   2   32   42     5     6    4.7702E+03  0.0000E+00   4.7702E+03  0.000E+00  0.000E+00  0.000E+00  2.02203E+03  3.493E-02  3.000E+00  0.000E+00  0.000E+00  0.000E+00
   2   32   43     5     7    4.7702E+03  0.0000E+00   4.7702E+03  0.000E+00  0.000E+00  0.000E+00  2.02004E+03  3.871E-02  3.000E+00  0.000E+00  0.000E+00  0.000E+00
   2   33   44     5     8    4.7702E+03  0.0000E+00   4.7702E+03  0.000E+00  0.000E+00  0.000E+00  2.01904E+03  3.876E-02  3.000E+00  0.000E+00  0.000E+00  0.000E+00
   2   34   47     6     1    5.7593E+03  3.9982E+00   5.7553E+03  0.000E+00  0.000E+00  0.000E+00  2.00703E+03  2.638E-02  3.000E+00  6.750E+02  0.000E+00  0.000E+00
   2   34   48     6     2    5.7553E+03 -1.2914E+02   5.8845E+03  0.000E+00  0.000E+00  0.000E+00  2.00103E+03  3.459E-02  3.000E+00  1.630E+03  0.000E+00  0.000E+00
   2   35   49     6     3    5.8845E+03 -2.6396E+02   6.1484E+03  0.000E+00  0.000E+00  0.000E+00  1.99404E+03  3.710E-02  3.000E+00  1.630E+03  0.000E+00  0.000E+00
   2   35   50     6     4    6.1484E+03 -1.9295E+02   6.3414E+03  0.000E+00  0.000E+00  0.000E+00  1.99005E+03  4.542E-02  3.000E+00  1.350E+03  0.000E+00  0.000E+00
   2   35   51     6     5    6.3414E+03  1.9684E+01   6.3217E+03  0.000E+00  0.000E+00  0.000E+00  1.98905E+03  4.588E-02  3.000E+00  1.630E+03  0.000E+00  0.000E+00
   2   36   52     6     6    6.3217E+03 -1.2237E+02   6.4441E+03  0.000E+00  0.000E+00  0.000E+00  1.98404E+03  4.082E-02  3.000E+00  1.630E+03  0.000E+00  0.000E+00
   2   36   53     6     7    6.4441E+03 -2.5890E+02   6.7030E+03  0.000E+00  0.000E+00  0.000E+00  1.98005E+03  5.299E-02  3.000E+00  1.630E+03  0.000E+00  0.000E+00
   2   37   54     6     8    6.7030E+03 -4.8577E+01   6.7516E+03  0.000E+00  0.000E+00  0.000E+00  1.98006E+03  5.635E-02  3.000E+00  1.909E+03  0.000E+00  0.000E+00
   2   36   55     6     9    6.7516E+03 -8.9406E+01   6.8410E+03  0.000E+00  0.000E+00  0.000E+00  1.97604E+03  4.307E-02  3.000E+00  9.546E+02  0.000E+00  0.000E+00
   2   36   34     7     1    1.9116E+03 -5.1674E+01   1.9633E+03  0.000E+00  0.000E+00  0.000E+00  2.07701E+03  1.300E-02  3.000E+00  9.546E+02  0.000E+00  0.000E+00
   2   35   35     7     2    1.9633E+03 -1.1009E+02   2.0734E+03  0.000E+00  0.000E+00  0.000E+00  2.06702E+03  1.755E-02  3.000E+00  1.630E+03  0.000E+00  0.000E+00
   2   35   36     7     3    2.0734E+03  2.0275E+01   2.0531E+03  0.000E+00  0.000E+00  0.000E+00  2.06202E+03  1.755E-02  3.000E+00  1.350E+03  0.000E+00  0.000E+00
   2   35   37     7     4    2.0531E+03 -6.2920E+01   2.1161E+03  0.000E+00  0.000E+00  0.000E+00  2.05401E+03  1.347E-02  3.000E+00  6.750E+02  0.000E+00  0.000E+00
   2   52   49     8     1    0.0000E+00 -1.9705E+02   1.9705E+02  0.000E+00  0.000E+00  0.000E+00  2.12100E+03  2.801E-03  3.000E+00  1.909E+03  0.000E+00  0.000E+00
   2   51   48     8     2    1.9705E+02 -2.3870E+02   4.3575E+02  0.000E+00  0.000E+00  0.000E+00  2.11701E+03  9.002E-03  3.000E+00  1.909E+03  0.000E+00  0.000E+00
   2   50   47     8     3    4.3575E+02  1.8903E+02   2.4672E+02  0.000E+00  0.000E+00  0.000E+00  2.11701E+03  7.296E-03  3.000E+00  1.630E+03  0.000E+00  0.000E+00
   2   49   47     8     4    2.4672E+02 -2.6342E+02   5.1014E+02  0.000E+00  0.000E+00  0.000E+00  2.10901E+03  7.260E-03  3.000E+00  1.630E+03  0.000E+00  0.000E+00
   2   48   46     8     5    5.1014E+02  1.3002E+01   4.9714E+02  0.000E+00  0.000E+00  0.000E+00  2.10701E+03  1.135E-02  3.000E+00  1.630E+03  0.000E+00  0.000E+00
   2   47   46     8     6    4.9714E+02  1.6639E+02   3.3074E+02  0.000E+00  0.000E+00  0.000E+00  2.10501E+03  9.532E-03  3.000E+00  1.350E+03  0.000E+00  0.000E+00
   2   46   46     8     7    3.3074E+02  8.1000E+01   2.4974E+02  0.000E+00  0.000E+00  0.000E+00  2.10301E+03  6.821E-03  3.000E+00  1.350E+03  8.327E+01 -2.266E+00
   2   45   46     8     8    2.4974E+02  8.1000E+01   1.6874E+02  0.000E+00  0.000E+00  0.000E+00  2.09900E+03  4.553E-03  3.000E+00  1.350E+03  8.395E+01 -2.951E+00
   2   44   46     8     9    1.6874E+02  8.1000E+01   8.7744E+01  0.000E+00  0.000E+00  0.000E+00  2.09100E+03  2.957E-03  3.000E+00  1.350E+03  8.397E+01 -2.973E+00
   2   43   46     8    10    8.7744E+01  8.1000E+01   6.7438E+00  0.000E+00  0.000E+00  0.000E+00  2.08000E+03  1.624E-03  3.000E+00  1.350E+03  8.367E+01 -2.673E+00
   2   42   46     8    11    6.7438E+00  6.7438E+00   0.0000E+00  0.000E+00  0.000E+00  0.000E+00  2.07200E+03  1.184E-04  3.000E+00  1.630E+03  0.000E+00  6.744E+00
   2   41   45     8    12    0.0000E+00  0.0000E+00   0.0000E+00  0.000E+00  0.000E+00  0.000E+00  2.06000E+03  0.000E+00  3.000E+00  1.630E+03  0.000E+00  0.000E+00
   2   40   45     8    13    0.0000E+00  0.0000E+00   0.0000E+00  0.000E+00  0.000E+00  0.000E+00  2.05400E+03  0.000E+00  3.000E+00  1.350E+03  0.000E+00  0.000E+00
   2   39   45     8    14    0.0000E+00  0.0000E+00   0.0000E+00  0.000E+00  0.000E+00  0.000E+00  2.04600E+03  0.000E+00  3.000E+00  1.350E+03  0.000E+00  0.000E+00
   2   38   45     8    15    0.0000E+00  0.0000E+00   0.0000E+00  0.000E+00  0.000E+00  0.000E+00  2.03500E+03  0.000E+00  3.000E+00  1.350E+03  0.000E+00  0.000E+00
   2   37   45     8    16    0.0000E+00 -2.2605E+01   2.2605E+01  0.000E+00  0.000E+00  0.000E+00  2.02700E+03  7.984E-04  3.000E+00  1.630E+03  0.000E+00  0.000E+00
   2   36   46     8    17    2.2605E+01  2.2605E+01   0.0000E+00  0.000E+00  0.000E+00  0.000E+00  2.02100E+03  2.784E-04  3.000E+00  1.630E+03  0.000E+00  2.260E+01
   2   35   46     8    18    0.0000E+00  0.0000E+00   0.0000E+00  0.000E+00  0.000E+00  0.000E+00  2.01400E+03  0.000E+00  3.000E+00  1.630E+03  0.000E+00  0.000E+00
   2   34   47     8    19    0.0000E+00 -1.8931E+01   1.8931E+01  0.000E+00  0.000E+00  0.000E+00  2.00700E+03  6.252E-04  3.000E+00  9.546E+02  0.000E+00  0.000E+00
   2   37   26     9     1    0.0000E+00  0.0000E+00   0.0000E+00  0.000E+00  0.000E+00  0.000E+00  2.14700E+03  0.000E+00  3.000E+00  1.350E+03  0.000E+00  0.000E+00
   2   37   27     9     2    0.0000E+00 -4.0123E+01   4.0123E+01  0.000E+00  0.000E+00  0.000E+00  2.13400E+03  9.297E-04  3.000E+00  1.350E+03  0.000E+00  0.000E+00
   2   37   28     9     3    4.0123E+01 -1.2597E+02   1.6609E+02  0.000E+00  0.000E+00  0.000E+00  2.12500E+03  2.745E-03  3.000E+00  1.630E+03  0.000E+00  0.000E+00
   2   36   29     9     4    1.6609E+02  2.8357E+01   1.3774E+02  0.000E+00  0.000E+00  0.000E+00  2.11500E+03  3.520E-03  3.000E+00  1.630E+03  0.000E+00  0.000E+00
   2   36   30     9     5    1.3774E+02 -6.9962E+01   2.0770E+02  0.000E+00  0.000E+00  0.000E+00  2.10700E+03  3.655E-03  3.000E+00  1.350E+03  0.000E+00  0.000E+00
   2   36   31     9     6    2.0770E+02 -1.9301E+02   4.0071E+02  0.000E+00  0.000E+00  0.000E+00  2.09801E+03  5.228E-03  3.000E+00  1.350E+03  0.000E+00  0.000E+00
   2   36   32     9     7    4.0071E+02 -1.4189E+02   5.4260E+02  0.000E+00  0.000E+00  0.000E+00  2.09101E+03  7.079E-03  3.000E+00  1.350E+03  0.000E+00  0.000E+00
   2   36   33     9     8    5.4260E+02 -1.4081E+02   6.8341E+02  0.000E+00  0.000E+00  0.000E+00  2.08401E+03  8.285E-03  3.000E+00  1.350E+03  0.000E+00  0.000E+00
   2   36   34     9     9    6.8341E+02 -4.0662E+01   7.2407E+02  0.000E+00  0.000E+00  0.000E+00  2.07701E+03  6.897E-03  3.000E+00  6.750E+02  0.000E+00  0.000E+00
   2   58   37    10     1    0.0000E+00  0.0000E+00   0.0000E+00  0.000E+00  0.000E+00  0.000E+00  2.15000E+03  0.000E+00  3.000E+00  1.350E+03  0.000E+00  0.000E+00
   2   57   37    10     2    0.0000E+00 -7.7825E+01   7.7825E+01  0.000E+00  0.000E+00  0.000E+00  2.14700E+03  2.064E-03  3.000E+00  1.630E+03  0.000E+00  0.000E+00
   2   56   38    10     3    7.7825E+01 -8.3108E+00   8.6135E+01  0.000E+00  0.000E+00  0.000E+00  2.14300E+03  2.993E-03  3.000E+00  1.630E+03  0.000E+00  0.000E+00
   2   55   38    10     4    8.6135E+01 -1.7781E+02   2.6394E+02  0.000E+00  0.000E+00  0.000E+00  2.13800E+03  4.619E-03  3.000E+00  1.350E+03  0.000E+00  0.000E+00
   2   54   38    10     5    2.6394E+02 -1.1983E+02   3.8377E+02  0.000E+00  0.000E+00  0.000E+00  2.13501E+03  7.285E-03  3.000E+00  1.350E+03  0.000E+00  0.000E+00
   2   53   38    10     6    3.8377E+02 -1.1299E+02   4.9676E+02  0.000E+00  0.000E+00  0.000E+00  2.13201E+03  8.758E-03  3.000E+00  1.350E+03  0.000E+00  0.000E+00
   2   52   38    10     7    4.9676E+02 -1.7157E+02   6.6833E+02  0.000E+00  0.000E+00  0.000E+00  2.12901E+03  1.238E-02  3.000E+00  1.630E+03  0.000E+00  0.000E+00
   2   51   39    10     8    6.6833E+02  7.8578E+00   6.6047E+02  0.000E+00  0.000E+00  0.000E+00  2.12801E+03  1.340E-02  3.000E+00  1.630E+03  0.000E+00  0.000E+00
   2   50   39    10     9    6.6047E+02 -8.8493E+01   7.4897E+02  0.000E+00  0.000E+00  0.000E+00  2.12501E+03  1.173E-02  3.000E+00  1.630E+03  0.000E+00  0.000E+00
   2   49   38    10    10    7.4897E+02 -1.5875E+02   9.0772E+02  0.000E+00  0.000E+00  0.000E+00  2.12101E+03  1.356E-02  3.000E+00  1.909E+03  0.000E+00  0.000E+00
   2   48   37    10    11    9.0772E+02  1.5672E+01   8.9205E+02  0.000E+00  0.000E+00  0.000E+00  2.11801E+03  1.212E-02  3.000E+00  1.909E+03  0.000E+00  0.000E+00
   2   47   36    10    12    8.9205E+02 -3.4316E+02   1.2352E+03  0.000E+00  0.000E+00  0.000E+00  2.10901E+03  1.278E-02  3.000E+00  1.630E+03  0.000E+00  0.000E+00
   2   46   36    10    13    1.2352E+03 -1.3712E+02   1.3723E+03  0.000E+00  0.000E+00  0.000E+00  2.10602E+03  1.604E-02  3.000E+00  1.350E+03  0.000E+00  0.000E+00
   2   45   36    10    14    1.3723E+03 -1.7187E+02   1.5442E+03  0.000E+00  0.000E+00  0.000E+00  2.10202E+03  1.716E-02  3.000E+00  1.350E+03  0.000E+00  0.000E+00
   2   44   36    10    15    1.5442E+03 -1.0216E+02   1.6464E+03  0.000E+00  0.000E+00  0.000E+00  2.09902E+03  1.896E-02  3.000E+00  1.350E+03  0.000E+00  0.000E+00
   2   43   36    10    16    1.6464E+03 -2.2655E+01   1.6690E+03  0.000E+00  0.000E+00  0.000E+00  2.09602E+03  1.818E-02  3.000E+00  1.630E+03  0.000E+00  0.000E+00
   2   42   37    10    17    1.6690E+03  1.7394E+02   1.4951E+03  0.000E+00  0.000E+00  0.000E+00  2.09001E+03  1.487E-02  3.000E+00  1.630E+03  0.000E+00  0.000E+00
   2   41   37    10    18    1.4951E+03 -2.6628E+02   1.7614E+03  0.000E+00  0.000E+00  0.000E+00  2.08001E+03  1.430E-02  3.000E+00  1.350E+03  0.000E+00  0.000E+00
   2   40   37    10    19    1.7614E+03 -3.3012E+02   2.0915E+03  0.000E+00  0.000E+00  0.000E+00  2.07402E+03  1.989E-02  3.000E+00  1.630E+03  0.000E+00  0.000E+00
   2   39   38    10    20    2.0915E+03 -3.2874E+01   2.1243E+03  0.000E+00  0.000E+00  0.000E+00  2.07102E+03  2.264E-02  3.000E+00  1.630E+03  0.000E+00  0.000E+00
   2   38   38    10    21    2.1243E+03  2.0996E+01   2.1033E+03  0.000E+00  0.000E+00  0.000E+00  2.06702E+03  2.038E-02  3.000E+00  1.630E+03  0.000E+00  0.000E+00
   2   37   37    10    22    2.1033E+03 -2.9049E+02   2.3938E+03  0.000E+00  0.000E+00  0.000E+00  2.06102E+03  2.115E-02  3.000E+00  1.630E+03  0.000E+00  0.000E+00
   2   36   37    10    23    2.3938E+03 -2.0001E+02   2.5938E+03  0.000E+00  0.000E+00  0.000E+00  2.05702E+03  2.367E-02  3.000E+00  1.350E+03  0.000E+00  0.000E+00
   2   35   37    10    24    2.5938E+03 -6.0331E+01   2.6542E+03  0.000E+00  0.000E+00  0.000E+00  2.05402E+03  1.731E-02  3.000E+00  6.750E+02  0.000E+00  0.000E+00
   2   36   55    11     1    7.2807E+03 -6.7538E+01   7.3482E+03  0.000E+00  0.000E+00  0.000E+00  1.97604E+03  3.667E-02  3.000E+00  6.750E+02  0.000E+00  0.000E+00
   2   36   56    11     2    7.3482E+03 -1.1796E+02   7.4662E+03  0.000E+00  0.000E+00  0.000E+00  1.97506E+03  6.206E-02  3.000E+00  1.630E+03  0.000E+00  0.000E+00
   2   37   57    11     3    7.4662E+03 -1.2219E+02   7.5884E+03  0.000E+00  0.000E+00  0.000E+00  1.97306E+03  6.266E-02  3.000E+00  1.630E+03  0.000E+00  0.000E+00
   2   37   58    11     4    7.5884E+03 -7.3252E+01   7.6617E+03  0.000E+00  0.000E+00  0.000E+00  1.97208E+03  8.298E-02  3.000E+00  1.350E+03  0.000E+00  0.000E+00
   2   37   59    11     5    7.6617E+03  3.7743E+01   7.6239E+03  0.000E+00  0.000E+00  0.000E+00  1.97207E+03  6.750E-02  3.000E+00  1.350E+03  0.000E+00  0.000E+00
   2   37   60    11     6    7.6239E+03 -4.4378E+01   7.6683E+03  0.000E+00  0.000E+00  0.000E+00  1.97005E+03  5.427E-02  3.000E+00  1.630E+03  0.000E+00  0.000E+00
   2   38   61    11     7    7.6683E+03 -1.5245E+02   7.8207E+03  0.000E+00  0.000E+00  0.000E+00  1.96705E+03  4.943E-02  3.000E+00  1.630E+03  0.000E+00  0.000E+00
   2   38   62    11     8    7.8207E+03 -1.0345E+02   7.9242E+03  0.000E+00  0.000E+00  0.000E+00  1.96305E+03  4.533E-02  3.000E+00  6.750E+02  0.000E+00  0.000E+00
   2   51   11    12     1    0.0000E+00 -3.8573E+02   3.8573E+02  0.000E+00  0.000E+00  0.000E+00  2.38700E+03  4.011E-03  3.000E+00  1.909E+03  0.000E+00  0.000E+00
   2   50   12    12     2    3.8573E+02 -5.8105E+01   4.4383E+02  0.000E+00  0.000E+00  0.000E+00  2.37501E+03  6.055E-03  3.000E+00  1.630E+03  0.000E+00  0.000E+00
   2   49   12    12     3    4.4383E+02 -3.8486E+02   8.2869E+02  0.000E+00  0.000E+00  0.000E+00  2.36501E+03  8.179E-03  3.000E+00  1.630E+03  0.000E+00  0.000E+00
   2   48   13    12     4    8.2869E+02 -1.7724E+02   1.0059E+03  0.000E+00  0.000E+00  0.000E+00  2.35601E+03  1.094E-02  3.000E+00  1.630E+03  0.000E+00  0.000E+00
   2   48   14    12     5    1.0059E+03 -1.6832E+02   1.1742E+03  0.000E+00  0.000E+00  0.000E+00  2.35001E+03  1.190E-02  3.000E+00  1.630E+03  0.000E+00  0.000E+00
   2   47   15    12     6    1.1742E+03 -1.6795E+02   1.3422E+03  0.000E+00  0.000E+00  0.000E+00  2.34001E+03  1.322E-02  3.000E+00  1.630E+03  0.000E+00  0.000E+00
   2   47   16    12     7    1.3422E+03 -1.3962E+02   1.4818E+03  0.000E+00  0.000E+00  0.000E+00  2.33502E+03  1.555E-02  3.000E+00  1.630E+03  0.000E+00  0.000E+00
   2   46   17    12     8    1.4818E+03  6.8053E+01   1.4138E+03  0.000E+00  0.000E+00  0.000E+00  2.32901E+03  1.468E-02  3.000E+00  1.630E+03  0.000E+00  0.000E+00
   2   46   18    12     9    1.4138E+03  1.5226E+02   1.2615E+03  0.000E+00  0.000E+00  0.000E+00  2.32101E+03  1.140E-02  3.000E+00  1.350E+03  0.000E+00  0.000E+00
   2   46   19    12    10    1.2615E+03 -4.5059E+02   1.7121E+03  0.000E+00  0.000E+00  0.000E+00  2.30601E+03  1.381E-02  3.000E+00  1.350E+03  0.000E+00  0.000E+00
   2   46   20    12    11    1.7121E+03  7.6189E+02   9.5020E+02  0.000E+00  0.000E+00  0.000E+00  2.30601E+03  1.089E-02  3.000E+00  1.630E+03  0.000E+00  0.000E+00
   2   45   21    12    12    9.5020E+02 -3.1686E+02   1.2671E+03  0.000E+00  0.000E+00  0.000E+00  2.27401E+03  8.654E-03  3.000E+00  1.909E+03  0.000E+00  0.000E+00
   2   44   22    12    13    1.2671E+03 -1.7346E+02   1.4405E+03  0.000E+00  0.000E+00  0.000E+00  2.25001E+03  1.056E-02  3.000E+00  1.909E+03  0.000E+00  0.000E+00
   2   43   23    12    14    1.4405E+03  1.4407E+02   1.2965E+03  0.000E+00  0.000E+00  0.000E+00  2.23101E+03  1.070E-02  3.000E+00  1.909E+03  0.000E+00  0.000E+00
   2   42   24    12    15    1.2965E+03 -7.8022E+01   1.3745E+03  0.000E+00  0.000E+00  0.000E+00  2.20801E+03  1.102E-02  3.000E+00  1.630E+03  0.000E+00  0.000E+00
   2   42   25    12    16    1.3745E+03 -1.6313E+01   1.3908E+03  0.000E+00  0.000E+00  0.000E+00  2.20001E+03  1.213E-02  3.000E+00  1.350E+03  0.000E+00  0.000E+00
   2   42   26    12    17    1.3908E+03  1.2287E+02   1.2679E+03  0.000E+00  0.000E+00  0.000E+00  2.18801E+03  1.049E-02  3.000E+00  1.350E+03  0.000E+00  0.000E+00
   2   42   27    12    18    1.2679E+03 -2.6199E+02   1.5299E+03  0.000E+00  0.000E+00  0.000E+00  2.17001E+03  1.092E-02  3.000E+00  1.350E+03  0.000E+00  0.000E+00
   2   42   28    12    19    1.5299E+03 -9.2224E+01   1.6221E+03  0.000E+00  0.000E+00  0.000E+00  2.15901E+03  1.255E-02  3.000E+00  1.630E+03  0.000E+00  0.000E+00
   2   41   29    12    20    1.6221E+03  1.5031E+02   1.4718E+03  0.000E+00  0.000E+00  0.000E+00  2.14201E+03  1.250E-02  3.000E+00  1.909E+03  0.000E+00  0.000E+00
   2   40   30    12    21    1.4718E+03  7.3275E+01   1.3985E+03  0.000E+00  0.000E+00  0.000E+00  2.12701E+03  1.258E-02  3.000E+00  1.909E+03  0.000E+00  0.000E+00
   2   39   31    12    22    1.3985E+03  1.1455E+02   1.2840E+03  0.000E+00  0.000E+00  0.000E+00  2.11501E+03  1.251E-02  3.000E+00  1.909E+03  1.151E+02 -5.751E-01
   2   38   32    12    23    1.2840E+03  1.1455E+02   1.1694E+03  0.000E+00  0.000E+00  0.000E+00  2.10301E+03  1.158E-02  3.000E+00  1.909E+03  1.180E+02 -3.493E+00
   2   37   33    12    24    1.1694E+03  3.6815E+01   1.1326E+03  0.000E+00  0.000E+00  0.000E+00  2.08901E+03  1.114E-02  3.000E+00  1.909E+03  0.000E+00  0.000E+00
   2   36   34    12    25    1.1326E+03 -5.4962E+01   1.1876E+03  0.000E+00  0.000E+00  0.000E+00  2.07701E+03  9.560E-03  3.000E+00  9.546E+02  0.000E+00  0.000E+00
   2   38   62    13     1    8.1112E+03 -1.1029E+02   8.2215E+03  0.000E+00  0.000E+00  0.000E+00  1.96304E+03  3.520E-02  3.000E+00  6.750E+02  0.000E+00  0.000E+00
   2   38   63    13     2    8.2215E+03 -4.6820E+00   8.2262E+03  0.000E+00  0.000E+00  0.000E+00  1.96530E+03  2.302E+00  3.000E+00  1.350E+03  0.000E+00  0.000E+00
   2   38   64    13     3    8.2262E+03  2.9429E+01   8.1968E+03  0.000E+00  0.000E+00  0.000E+00  1.96530E+03  2.300E+00  3.000E+00  1.350E+03  0.000E+00  0.000E+00
   2   38   65    13     4    8.1968E+03 -1.6939E+01   8.2137E+03  0.000E+00  0.000E+00  0.000E+00  1.96306E+03  6.237E-02  3.000E+00  6.750E+02  0.000E+00  0.000E+00
   2   46   61    14     1    0.0000E+00  0.0000E+00   0.0000E+00  0.000E+00  0.000E+00  0.000E+00  2.01700E+03  0.000E+00  3.000E+00  1.350E+03  0.000E+00  0.000E+00
   2   45   61    14     2    0.0000E+00  0.0000E+00   0.0000E+00  0.000E+00  0.000E+00  0.000E+00  2.01000E+03  0.000E+00  3.000E+00  1.350E+03  0.000E+00  0.000E+00
   2   44   61    14     3    0.0000E+00  0.0000E+00   0.0000E+00  0.000E+00  0.000E+00  0.000E+00  2.00600E+03  0.000E+00  3.000E+00  1.350E+03  0.000E+00  0.000E+00
   2   43   61    14     4    0.0000E+00  0.0000E+00   0.0000E+00  0.000E+00  0.000E+00  0.000E+00  1.99900E+03  0.000E+00  3.000E+00  1.350E+03  0.000E+00  0.000E+00
   2   42   61    14     5    0.0000E+00  0.0000E+00   0.0000E+00  0.000E+00  0.000E+00  0.000E+00  1.99300E+03  0.000E+00  3.000E+00  1.350E+03  0.000E+00  0.000E+00
   2   41   61    14     6    0.0000E+00  0.0000E+00   0.0000E+00  0.000E+00  0.000E+00  0.000E+00  1.98500E+03  0.000E+00  3.000E+00  1.350E+03  0.000E+00  0.000E+00
   2   40   61    14     7    0.0000E+00  0.0000E+00   0.0000E+00  0.000E+00  0.000E+00  0.000E+00  1.97800E+03  0.000E+00  3.000E+00  1.350E+03  0.000E+00  0.000E+00
   2   39   61    14     8    0.0000E+00  0.0000E+00   0.0000E+00  0.000E+00  0.000E+00  0.000E+00  1.97300E+03  0.000E+00  3.000E+00  1.630E+03  0.000E+00  0.000E+00
   2   38   62    14     9    0.0000E+00 -1.8702E+02   1.8702E+02  0.000E+00  0.000E+00  0.000E+00  1.96300E+03  2.673E-03  3.000E+00  9.546E+02  0.000E+00  0.000E+00
   2   39   70    15     1    8.5335E+03  1.5242E+00   8.5319E+03  0.000E+00  0.000E+00  0.000E+00  1.94604E+03  3.512E-02  3.000E+00  6.750E+02  0.000E+00  0.000E+00
   2   40   75    16     1    1.5000E+04 -3.0715E+01   1.5031E+04  0.000E+00  0.000E+00  0.000E+00  1.93406E+03  6.245E-02  3.000E+00  6.750E+02  0.000E+00  0.000E+00
   2   40   76    16     2    1.5031E+04  0.0000E+00   1.5031E+04  0.000E+00  0.000E+00  0.000E+00  1.93309E+03  8.968E-02  3.000E+00  0.000E+00  0.000E+00  0.000E+00
   2   55   73    17     1    0.0000E+00  0.0000E+00   0.0000E+00  0.000E+00  0.000E+00  0.000E+00  2.04100E+03  0.000E+00  3.000E+00  1.350E+03  0.000E+00  0.000E+00
   2   54   73    17     2    0.0000E+00  0.0000E+00   0.0000E+00  0.000E+00  0.000E+00  0.000E+00  2.02900E+03  0.000E+00  3.000E+00  1.350E+03  0.000E+00  0.000E+00
   2   53   73    17     3    0.0000E+00  0.0000E+00   0.0000E+00  0.000E+00  0.000E+00  0.000E+00  2.01700E+03  0.000E+00  3.000E+00  1.350E+03  0.000E+00  0.000E+00
   2   52   73    17     4    0.0000E+00  0.0000E+00   0.0000E+00  0.000E+00  0.000E+00  0.000E+00  2.01000E+03  0.000E+00  3.000E+00  1.630E+03  0.000E+00  0.000E+00
   2   51   72    17     5    0.0000E+00  0.0000E+00   0.0000E+00  0.000E+00  0.000E+00  0.000E+00  1.99800E+03  0.000E+00  3.000E+00  1.630E+03  0.000E+00  0.000E+00
   2   50   72    17     6    0.0000E+00 -5.2384E+01   5.2384E+01  0.000E+00  0.000E+00  0.000E+00  1.97500E+03  1.309E-03  3.000E+00  1.350E+03  0.000E+00  0.000E+00
   2   49   72    17     7    5.2384E+01  0.0000E+00   5.2384E+01  0.000E+00  0.000E+00  0.000E+00  1.95600E+03  1.901E-03  3.000E+00  0.000E+00  0.000E+00  0.000E+00
   2   48   72    17     8    5.2384E+01  0.0000E+00   5.2384E+01  0.000E+00  0.000E+00  0.000E+00  1.95200E+03  1.892E-03  3.000E+00  0.000E+00  0.000E+00  0.000E+00
   2   47   72    17     9    5.2384E+01  0.0000E+00   5.2384E+01  0.000E+00  0.000E+00  0.000E+00  1.95000E+03  1.931E-03  3.000E+00  0.000E+00  0.000E+00  0.000E+00
   2   46   72    17    10    5.2384E+01  0.0000E+00   5.2384E+01  0.000E+00  0.000E+00  0.000E+00  1.94800E+03  1.987E-03  3.000E+00  0.000E+00  0.000E+00  0.000E+00
   2   45   72    17    11    5.2384E+01  0.0000E+00   5.2384E+01  0.000E+00  0.000E+00  0.000E+00  1.94400E+03  2.005E-03  3.000E+00  0.000E+00  0.000E+00  0.000E+00
   2   44   73    17    12    5.2384E+01  0.0000E+00   5.2384E+01  0.000E+00  0.000E+00  0.000E+00  1.94200E+03  2.054E-03  3.000E+00  0.000E+00  0.000E+00  0.000E+00
   2   43   73    17    13    5.2384E+01  0.0000E+00   5.2384E+01  0.000E+00  0.000E+00  0.000E+00  1.94200E+03  2.230E-03  3.000E+00  0.000E+00  0.000E+00  0.000E+00
   2   42   73    17    14    5.2384E+01  0.0000E+00   5.2384E+01  0.000E+00  0.000E+00  0.000E+00  1.94100E+03  2.283E-03  3.000E+00  0.000E+00  0.000E+00  0.000E+00
   2   34   45    18     1    5.6347E+03 -3.7521E+01   5.6722E+03  0.000E+00  0.000E+00  0.000E+00  2.01794E+03  3.932E-02  3.000E+00  1.630E+03  0.000E+00  0.000E+00
   2   34   46    18     2    5.6722E+03 -7.3620E+01   5.7458E+03  0.000E+00  0.000E+00  0.000E+00  2.01104E+03  3.608E-02  3.000E+00  1.350E+03  0.000E+00  0.000E+00
   2   34   47    18     3    5.7458E+03  5.4279E+00   5.7404E+03  0.000E+00  0.000E+00  0.000E+00  2.00703E+03  2.850E-02  3.000E+00  6.750E+02  0.000E+00  0.000E+00
   2   41   74    19     1    9.6294E+03 -2.1519E+02   9.8446E+03  0.000E+00  0.000E+00  0.000E+00  1.93805E+03  5.344E-02  3.000E+00  1.909E+03  0.000E+00  0.000E+00
   2   40   75    19     2    9.8446E+03 -5.1626E+01   9.8962E+03  0.000E+00  0.000E+00  0.000E+00  1.93405E+03  5.388E-02  3.000E+00  9.546E+02  0.000E+00  0.000E+00
   2   39   66    20     1    0.0000E+00  0.0000E+00   0.0000E+00  0.000E+00  0.000E+00  0.000E+00  1.96250E+03  0.000E+00  1.500E+00  8.148E+02  0.000E+00  0.000E+00
   2   39   67    20     2    0.0000E+00  0.0000E+00   0.0000E+00  0.000E+00  0.000E+00  0.000E+00  1.96225E+03  0.000E+00  1.500E+00  6.750E+02  0.000E+00  0.000E+00
   2   40   68    20     3    0.0000E+00  0.0000E+00   0.0000E+00  0.000E+00  0.000E+00  0.000E+00  1.96200E+03  0.000E+00  1.500E+00  9.546E+02  0.000E+00  0.000E+00
   2   41   69    20     4    0.0000E+00  0.0000E+00   0.0000E+00  0.000E+00  0.000E+00  0.000E+00  1.96175E+03  0.000E+00  1.500E+00  8.148E+02  0.000E+00  0.000E+00
   2   42   69    20     5    0.0000E+00  0.0000E+00   0.0000E+00  0.000E+00  0.000E+00  0.000E+00  1.96150E+03  0.000E+00  1.500E+00  8.148E+02  0.000E+00  0.000E+00
   2   43   70    20     6    0.0000E+00  0.0000E+00   0.0000E+00  0.000E+00  0.000E+00  0.000E+00  1.96125E+03  0.000E+00  1.500E+00  8.148E+02  0.000E+00  0.000E+00
   2   38   66    21     1    8.2137E+03 -7.3685E+01   8.2874E+03  0.000E+00  0.000E+00  0.000E+00  1.96005E+03  5.368E-02  3.000E+00  1.350E+03  0.000E+00  0.000E+00
   2   38   67    21     2    8.2874E+03  1.0695E+01   8.2767E+03  0.000E+00  0.000E+00  0.000E+00  1.95805E+03  5.147E-02  3.000E+00  1.630E+03  0.000E+00  0.000E+00
   2   39   68    21     3    8.2767E+03 -1.7038E+01   8.2937E+03  0.000E+00  0.000E+00  0.000E+00  1.95305E+03  4.625E-02  3.000E+00  1.630E+03  0.000E+00  0.000E+00
   2   39   69    21     4    8.2937E+03 -2.1545E+02   8.5092E+03  0.000E+00  0.000E+00  0.000E+00  1.94805E+03  4.906E-02  3.000E+00  1.350E+03  0.000E+00  0.000E+00
   2   39   70    21     5    8.5092E+03  6.1985E+00   8.5030E+03  0.000E+00  0.000E+00  0.000E+00  1.94604E+03  4.205E-02  3.000E+00  6.750E+02  0.000E+00  0.000E+00
   2   38   71    22     1    4.0000E+03 -5.8196E+01   4.0582E+03  0.000E+00  0.000E+00  0.000E+00  1.94556E+03  5.988E-02  3.000E+00  3.259E+02  0.000E+00  0.000E+00
   2   38   72    22     2    4.0582E+03 -4.1969E+01   4.1002E+03  0.000E+00  0.000E+00  0.000E+00  1.94506E+03  6.033E-02  3.000E+00  3.259E+02  0.000E+00  0.000E+00
   2   39   73    22     3    4.1002E+03  1.1865E+02   3.9815E+03  0.000E+00  0.000E+00  0.000E+00  1.94456E+03  5.999E-02  3.000E+00  3.259E+02  0.000E+00  0.000E+00
   2   39   74    22     4    3.9815E+03  8.1000E+01   3.9005E+03  0.000E+00  0.000E+00  0.000E+00  1.94406E+03  5.585E-02  3.000E+00  2.700E+02  8.442E+01 -3.421E+00
   2   39   75    22     5    3.9005E+03  8.1000E+01   3.8195E+03  0.000E+00  0.000E+00  0.000E+00  1.94356E+03  5.516E-02  3.000E+00  2.700E+02  8.426E+01 -3.262E+00
   2   39   76    22     6    3.8195E+03  0.0000E+00   3.8195E+03  0.000E+00  0.000E+00  0.000E+00  1.94305E+03  5.481E-02  3.000E+00  0.000E+00  0.000E+00  0.000E+00
   2   39   71    23     1    4.5319E+03 -1.9171E+02   4.7237E+03  0.000E+00  0.000E+00  0.000E+00  1.94204E+03  4.015E-02  3.000E+00  1.630E+03  0.000E+00  0.000E+00
   2   40   72    23     2    4.7237E+03 -7.8118E+01   4.8018E+03  0.000E+00  0.000E+00  0.000E+00  1.94104E+03  4.368E-02  3.000E+00  1.630E+03  0.000E+00  0.000E+00
   2   40   73    23     3    4.8018E+03 -1.7880E+02   4.9806E+03  0.000E+00  0.000E+00  0.000E+00  1.93804E+03  3.923E-02  3.000E+00  1.350E+03  0.000E+00  0.000E+00
   2   40   74    23     4    4.9806E+03 -7.6049E+01   5.0566E+03  0.000E+00  0.000E+00  0.000E+00  1.93604E+03  4.260E-02  3.000E+00  1.350E+03  0.000E+00  0.000E+00
   2   40   75    23     5    5.0566E+03 -4.7225E+01   5.1038E+03  0.000E+00  0.000E+00  0.000E+00  1.93404E+03  3.799E-02  3.000E+00  6.750E+02  0.000E+00  0.000E+00



1
  VOLUMETRIC BUDGET FOR UNSATURATED ZONE BENEATH STREAMS AT END OF TIME STEP    10 STRESS PERIOD   2
  ------------------------------------------------------------------------------------------------

    CUMULATIVE VOLUMES             L**3    RATES FOR THIS TIME STEP         L**3/T
    ------------------                     ------------------------


          STREAM LOSS =         9150.3916            STREAM LOSS =         1125.2500
    CHANGE IN STORAGE =         1208.7620      CHANGE IN STORAGE =          117.7205
       RECHARGE TO GW =         7941.6265         RECHARGE TO GW =         1007.5295

             TOTAL IN =         9150.3916               TOTAL IN =         1125.2500

            TOTAL OUT =         9150.3887              TOTAL OUT =         1125.2500

             IN - OUT =        2.9297E-03               IN - OUT =            0.0000

  PERCENT DISCREPANCY =            0.00      PERCENT DISCREPANCY =             0.00



 ***WARNING***NUZTOP IS 3 AND ALL LAYERS  IN ROW           39  AND COLUMN 
          76  ARE INACTIVE.
 UNSATURATED FLOW WILL NOT BE ADDED TO ANY LAYER-- SOME WATER MAY FLOW PAST
  LOWEST LAYER
 ***WARNING***NUZTOP IS 3 AND ALL LAYERS  IN ROW           40  AND COLUMN 
          76  ARE INACTIVE.
 UNSATURATED FLOW WILL NOT BE ADDED TO ANY LAYER-- SOME WATER MAY FLOW PAST
  LOWEST LAYER


UNSATURATED ZONE PACKAGE VOLUMETRIC BUDGET FOR  TIME STEP    10 STRESS PERIOD    2
  ------------------------------------------------------------------------------



     CUMULATIVE VOLUMES      L**3       RATES FOR THIS TIME STEP      L**3/T
     ------------------                 ------------------------

           IN:                                      IN:
           ---                                      ---
        INFILTRATION =       26039.6903          INFILTRATION =       0.0000E+00

          OUT:                                     OUT:
          ----                                     ----
              UZF ET =      238129.6027                UZF ET =       16184.3986
        UZF RECHARGE =      300245.4043          UZF RECHARGE =       24768.9545

            IN - OUT =     -512335.3166              IN - OUT =      -40953.3532

          STORAGE:                                 STORAGE:
          --------                                 --------
      STORAGE CHANGE =     -511282.6061        STORAGE CHANGE =      -40920.0090

 PERCENT DISCREPANCY IS DIFFERENCE BETWEEN IN-OUT MINUS CHANGE IN STORAGE
 DIVIDED BY THE AVERAGE OF IN AND OUT TIMES 100

 PERCENT DISCREPANCY =          -0.05     PERCENT DISCREPANCY =          -0.08






1
  VOLUMETRIC BUDGET FOR ENTIRE MODEL AT END OF TIME STEP   10, STRESS PERIOD   2
  ------------------------------------------------------------------------------

     CUMULATIVE VOLUMES      L**3       RATES FOR THIS TIME STEP      L**3/T
     ------------------                 ------------------------

           IN:                                      IN:
           ---                                      ---
             STORAGE     =        2763.6748               STORAGE     =         528.5737
       CONSTANT HEAD     =          17.4965         CONSTANT HEAD     =       2.0496E-02
      STREAM LEAKAGE     =       44148.2656        STREAM LEAKAGE     =        3785.8359
       LAKE  SEEPAGE     =        3238.9033         LAKE  SEEPAGE     =         246.3079
        UZF RECHARGE     =      300258.9688          UZF RECHARGE     =       24768.9922
               GW ET     =           0.0000                 GW ET     =           0.0000
     SURFACE LEAKAGE     =           0.0000       SURFACE LEAKAGE     =           0.0000

                TOTAL IN =      350427.3125                  TOTAL IN =       29329.7305

          OUT:                                     OUT:
          ----                                     ----
             STORAGE     =      146625.1719               STORAGE     =       11836.3936
       CONSTANT HEAD     =         710.4135         CONSTANT HEAD     =          69.1234
      STREAM LEAKAGE     =      125620.3906        STREAM LEAKAGE     =       12312.4062
       LAKE  SEEPAGE     =       29104.4473         LAKE  SEEPAGE     =        2664.2942
        UZF RECHARGE     =           0.0000          UZF RECHARGE     =           0.0000
               GW ET     =       45566.8281                 GW ET     =        2087.8687
     SURFACE LEAKAGE     =        3481.5239       SURFACE LEAKAGE     =         426.7643

               TOTAL OUT =      351108.7500                 TOTAL OUT =       29396.8477

                IN - OUT =        -681.4375                  IN - OUT =         -67.1172

     PERCENT DISCREPANCY =          -0.19         PERCENT DISCREPANCY =          -0.23






         TIME SUMMARY AT END OF TIME STEP   10 IN STRESS PERIOD    2
                    SECONDS     MINUTES      HOURS       DAYS        YEARS
                    -----------------------------------------------------------
   TIME STEP LENGTH  86400.      1440.0      24.000      1.0000     2.73785E-03
 STRESS PERIOD TIME 8.64000E+05  14400.      240.00      10.000     2.73785E-02
         TOTAL TIME 9.50400E+05  15840.      264.00      11.000     3.01164E-02
1
                                                   Max.-Head-Change                         Max.-Flux-Residual
  Residual-Control   Outer-Iter.   Inner-Iter.     Column Row Layer    Maximum-Head-Change  Column Row Layer    Maximum-Flux-Residual          L2-NORM 
          0                 1           4             6   59     2       0.1785269384E+01      68   27    2         0.1007981164E+03      0.4498960235E+03
          0                 2           4            21   51     2       0.1965289051E+01      55   35    2         0.3654407037E+03      0.3945848356E+03
          0                 3           3            21   51     2      -0.1327647160E+00      65   24    2         0.7442726438E+02      0.8601485179E+02
          0                 4           3            21   51     2      -0.1216678308E-01      65   24    2         0.1934618095E+02      0.2263593067E+02
          0                 5           2            65   24     2       0.2976042376E-02      65   24    2         0.5031094361E+01      0.6191362549E+01
          0                 6           2            65   24     2       0.7740984619E-03      65   24    2         0.1308577011E+01      0.1750891239E+01
          0                 7           1             4   59     2       0.2236540761E-03      65   24    2         0.3403838861E+00      0.5346902075E+00
          0                 8           1             4   59     2       0.1051698970E-03      65   24    2         0.8848798691E-01      0.1834592124E+00
          0                 9           1             4   59     2       0.4795894782E-04       3   59    2         0.2411679183E-01      0.7073863634E-01

    ------------------------------------------------
       NWT REQUIRED            9 OUTER ITERATIONS 
       AND A TOTAL OF         21 INNER ITERATIONS.
    ------------------------------------------------
                                                   Max.-Head-Change                         Max.-Flux-Residual
  Residual-Control   Outer-Iter.   Inner-Iter.     Column Row Layer    Maximum-Head-Change  Column Row Layer    Maximum-Flux-Residual          L2-NORM 
          0                 1           2            63   38     2       0.1429317041E-01      63   38    2         0.1846264967E+02      0.2380103648E+02
          0                 2           2            64   38     2       0.4284497095E-02      64   38    2         0.5555442602E+01      0.6263881008E+01
          0                 3           2            30   27     2       0.1080818763E-02      64   38    2         0.4896632095E+00      0.5833014803E+00
          0                 4           1            30   27     2       0.1093306596E-03      55   35    2         0.5397707925E-01      0.7746100995E-01
          0                 5           1            55   35     2       0.1746497623E-04      55   35    2         0.3128920686E-01      0.3679097632E-01

    ------------------------------------------------
       NWT REQUIRED            5 OUTER ITERATIONS 
       AND A TOTAL OF          8 INNER ITERATIONS.
    ------------------------------------------------
                                                   Max.-Head-Change                         Max.-Flux-Residual
  Residual-Control   Outer-Iter.   Inner-Iter.     Column Row Layer    Maximum-Head-Change  Column Row Layer    Maximum-Flux-Residual          L2-NORM 
          0                 1           1            30   27     2      -0.6349326589E-03      63   38    2         0.3395772049E-01      0.6796060108E-01
          0                 2           1            30   27     2      -0.5689120799E-03      55   35    2        -0.3864509687E-01      0.6847194916E-01
          0                 3           2            30   27     2       0.1084128016E-02      55   35    2        -0.4727006594E-01      0.1152619056E+00
          0                 4           1            30   27     2       0.1083862526E-03      55   35    2         0.5407365037E-01      0.6958117252E-01
          0                 5           1            55   35     2       0.1744758380E-04      55   35    2         0.3127431821E-01      0.3963334639E-01

    ------------------------------------------------
       NWT REQUIRED            5 OUTER ITERATIONS 
       AND A TOTAL OF          6 INNER ITERATIONS.
    ------------------------------------------------
                                                   Max.-Head-Change                         Max.-Flux-Residual
  Residual-Control   Outer-Iter.   Inner-Iter.     Column Row Layer    Maximum-Head-Change  Column Row Layer    Maximum-Flux-Residual          L2-NORM 
          0                 1           1            30   27     2      -0.6365732008E-03      55   35    2         0.1303968532E-01      0.5203347979E-01
          0                 2           1            30   27     2      -0.5668609272E-03      55   35    2        -0.3874021624E-01      0.7110646928E-01
          0                 3           2            30   27     2       0.1083738217E-02      55   35    2        -0.4724394608E-01      0.1153184810E+00
          0                 4           1            30   27     2       0.1083521373E-03      55   35    2         0.5407938286E-01      0.6991898051E-01
          0                 5           1            55   35     2       0.1744893561E-04      55   35    2         0.3127659420E-01      0.3913454948E-01

    ------------------------------------------------
       NWT REQUIRED            5 OUTER ITERATIONS 
       AND A TOTAL OF          6 INNER ITERATIONS.
    ------------------------------------------------

 OUTPUT CONTROL FOR STRESS PERIOD    2   TIME STEP   11
    PRINT BUDGET



 STREAM LISTING     PERIOD      2   STEP       11

 LAYER ROW COL. STREAM  RCH.   FLOW INTO    STREAM     FLOW OUT OF   OVRLND.    DIRECT     STREAM      STREAM      STREAM     STREAM  STREAMBED   FLOW TO   CHNG. UNSAT. 
                SEG.NO.  NO.   STRM. RCH.    LOSS       STRM. RCH.   RUNOFF     PRECIP       ET         HEAD        DEPTH      WIDTH  CONDCTNC.   WAT. TAB.

   2   18   62     1     1    0.0000E+00  0.0000E+00   0.0000E+00  0.000E+00  0.000E+00  0.000E+00  2.07300E+03  0.000E+00  3.000E+00  1.909E+03  0.000E+00  0.000E+00
   2   19   63     1     2    0.0000E+00 -5.1923E+01   5.1923E+01  0.000E+00  0.000E+00  0.000E+00  2.06300E+03  1.258E-03  3.000E+00  1.909E+03  0.000E+00  0.000E+00
   2   20   64     1     3    5.1923E+01 -7.7868E+01   1.2979E+02  0.000E+00  0.000E+00  0.000E+00  2.05400E+03  2.920E-03  3.000E+00  1.630E+03  0.000E+00  0.000E+00
   2   21   64     1     4    1.2979E+02 -7.9915E+01   2.0971E+02  0.000E+00  0.000E+00  0.000E+00  2.05101E+03  5.231E-03  3.000E+00  1.630E+03  0.000E+00  0.000E+00
   2   22   65     1     5    2.0971E+02 -1.0246E+01   2.1995E+02  0.000E+00  0.000E+00  0.000E+00  2.04801E+03  5.132E-03  3.000E+00  9.546E+02  0.000E+00  0.000E+00
   2   20   66     2     1    0.0000E+00 -3.7547E+01   3.7547E+01  0.000E+00  0.000E+00  0.000E+00  2.05300E+03  1.464E-03  3.000E+00  1.909E+03  0.000E+00  0.000E+00
   2   21   65     2     2    3.7547E+01  3.7547E+01   0.0000E+00  0.000E+00  0.000E+00  0.000E+00  2.05100E+03  5.028E-04  3.000E+00  1.630E+03  0.000E+00  0.000E+00
   2   22   65     2     3    0.0000E+00 -1.0374E+01   1.0374E+01  0.000E+00  0.000E+00  0.000E+00  2.04800E+03  4.953E-04  3.000E+00  6.750E+02  0.000E+00  0.000E+00
   2   22   65     3     1    2.3033E+02 -7.4221E+00   2.3775E+02  0.000E+00  0.000E+00  0.000E+00  2.04800E+03  4.869E-03  3.000E+00  6.750E+02  0.000E+00  0.000E+00
   2   23   65     3     2    2.3775E+02 -7.4836E+01   3.1258E+02  0.000E+00  0.000E+00  0.000E+00  2.04501E+03  8.606E-03  3.000E+00  1.630E+03  0.000E+00  0.000E+00
   2   24   66     3     3    3.1258E+02 -6.1300E+00   3.1871E+02  0.000E+00  0.000E+00  0.000E+00  2.04533E+03  3.255E-01  3.000E+00  1.909E+03  0.000E+00  0.000E+00
   2   25   67     3     4    3.1871E+02  2.4901E+01   2.9381E+02  0.000E+00  0.000E+00  0.000E+00  2.04501E+03  9.623E-03  3.000E+00  1.909E+03  0.000E+00  0.000E+00
   2   26   68     3     5    2.9381E+02  4.9587E+01   2.4423E+02  0.000E+00  0.000E+00  0.000E+00  2.04201E+03  7.788E-03  3.000E+00  1.630E+03  0.000E+00  0.000E+00
   2   27   68     3     6    2.4423E+02  9.7776E+01   1.4645E+02  0.000E+00  0.000E+00  0.000E+00  2.04101E+03  5.691E-03  3.000E+00  1.630E+03  1.037E+02 -5.950E+00
   2   28   69     3     7    1.4645E+02  9.7776E+01   4.8675E+01  0.000E+00  0.000E+00  0.000E+00  2.03600E+03  3.048E-03  3.000E+00  1.630E+03  0.000E+00  9.778E+01
   2   29   69     3     8    4.8675E+01  4.8675E+01   0.0000E+00  0.000E+00  0.000E+00  0.000E+00  2.02900E+03  4.168E-04  3.000E+00  1.350E+03  0.000E+00  4.868E+01
   2   30   69     3     9    0.0000E+00  0.0000E+00   0.0000E+00  0.000E+00  0.000E+00  0.000E+00  2.02300E+03  0.000E+00  3.000E+00  1.630E+03  0.000E+00  0.000E+00
   2   31   70     3    10    0.0000E+00  0.0000E+00   0.0000E+00  0.000E+00  0.000E+00  0.000E+00  2.01100E+03  0.000E+00  3.000E+00  1.630E+03  0.000E+00  0.000E+00
   2   32   70     3    11    0.0000E+00 -6.7359E+01   6.7359E+01  0.000E+00  0.000E+00  0.000E+00  2.00500E+03  1.718E-03  3.000E+00  1.350E+03  0.000E+00  0.000E+00
   2   33   70     3    12    6.7359E+01  6.7359E+01   0.0000E+00  0.000E+00  0.000E+00  0.000E+00  2.00300E+03  4.784E-04  3.000E+00  1.630E+03  6.886E+01 -1.501E+00
   2   34   69     3    13    0.0000E+00 -3.5740E+01   3.5740E+01  0.000E+00  0.000E+00  0.000E+00  1.98600E+03  8.362E-04  3.000E+00  1.630E+03  0.000E+00  0.000E+00
   2   35   69     3    14    3.5740E+01 -1.2194E+02   1.5768E+02  0.000E+00  0.000E+00  0.000E+00  1.97300E+03  2.496E-03  3.000E+00  1.350E+03  0.000E+00  0.000E+00
   2   36   69     3    15    1.5768E+02  1.5226E+01   1.4245E+02  0.000E+00  0.000E+00  0.000E+00  1.96700E+03  3.561E-03  3.000E+00  1.350E+03  0.000E+00  0.000E+00
   2   37   69     3    16    1.4245E+02  6.8538E+01   7.3915E+01  0.000E+00  0.000E+00  0.000E+00  1.95900E+03  2.926E-03  3.000E+00  1.350E+03  0.000E+00  0.000E+00
   2   38   69     3    17    7.3915E+01  7.3915E+01   0.0000E+00  0.000E+00  0.000E+00  0.000E+00  1.95300E+03  5.668E-04  3.000E+00  1.630E+03  0.000E+00  0.000E+00
   2   39   70     3    18    0.0000E+00 -3.0528E+01   3.0528E+01  0.000E+00  0.000E+00  0.000E+00  1.94600E+03  8.755E-04  3.000E+00  9.546E+02  0.000E+00  0.000E+00
   2   25   49     4     1    0.0000E+00 -1.3862E+02   1.3862E+02  0.000E+00  0.000E+00  0.000E+00  2.03500E+03  2.201E-03  3.000E+00  1.909E+03  0.000E+00  0.000E+00
   2   26   50     4     2    1.3862E+02 -9.6089E+01   2.3471E+02  0.000E+00  0.000E+00  0.000E+00  2.02600E+03  4.327E-03  3.000E+00  1.909E+03  0.000E+00  0.000E+00
   2   27   51     4     3    2.3471E+02 -8.5291E+01   3.2000E+02  0.000E+00  0.000E+00  0.000E+00  2.01901E+03  5.705E-03  3.000E+00  1.630E+03  0.000E+00  0.000E+00
   2   28   51     4     4    3.2000E+02 -7.7936E+01   3.9794E+02  0.000E+00  0.000E+00  0.000E+00  2.01401E+03  7.034E-03  3.000E+00  1.630E+03  0.000E+00  0.000E+00
   2   29   52     4     5    3.9794E+02 -7.1918E+01   4.6985E+02  0.000E+00  0.000E+00  0.000E+00  2.00901E+03  7.881E-03  3.000E+00  1.630E+03  0.000E+00  0.000E+00
   2   30   52     4     6    4.6985E+02 -5.6328E+01   5.2618E+02  0.000E+00  0.000E+00  0.000E+00  2.00401E+03  8.091E-03  3.000E+00  1.350E+03  0.000E+00  0.000E+00
   2   31   52     4     7    5.2618E+02 -7.9252E+01   6.0543E+02  0.000E+00  0.000E+00  0.000E+00  1.99901E+03  9.721E-03  3.000E+00  1.350E+03  0.000E+00  0.000E+00
   2   32   52     4     8    6.0543E+02  3.8788E-01   6.0505E+02  0.000E+00  0.000E+00  0.000E+00  1.99701E+03  1.029E-02  3.000E+00  1.630E+03  0.000E+00  0.000E+00
   2   33   53     4     9    6.0505E+02  2.0046E+00   6.0304E+02  0.000E+00  0.000E+00  0.000E+00  1.99101E+03  1.008E-02  3.000E+00  1.909E+03  0.000E+00  0.000E+00
   2   34   54     4    10    6.0304E+02  1.4294E+02   4.6011E+02  0.000E+00  0.000E+00  0.000E+00  1.98701E+03  9.635E-03  3.000E+00  1.909E+03  0.000E+00  0.000E+00
   2   35   55     4    11    4.6011E+02  4.6011E+02   0.0000E+00  0.000E+00  0.000E+00  0.000E+00  1.98200E+03  1.785E-03  3.000E+00  1.630E+03  5.571E-01  5.560E-01
   2   36   55     4    12    0.0000E+00 -9.3568E+01   9.3568E+01  0.000E+00  0.000E+00  0.000E+00  1.97600E+03  1.770E-03  3.000E+00  6.750E+02  0.000E+00  0.000E+00
   2   35   37     5     1    4.8413E+03  0.0000E+00   4.8413E+03  0.000E+00  0.000E+00  0.000E+00  2.05402E+03  2.479E-02  3.000E+00  0.000E+00  0.000E+00  0.000E+00
   2   34   38     5     2    4.8413E+03  0.0000E+00   4.8413E+03  0.000E+00  0.000E+00  0.000E+00  2.04003E+03  3.052E-02  3.000E+00  0.000E+00  0.000E+00  0.000E+00
   2   33   39     5     3    4.8413E+03  0.0000E+00   4.8413E+03  0.000E+00  0.000E+00  0.000E+00  2.03204E+03  3.626E-02  3.000E+00  0.000E+00  0.000E+00  0.000E+00
   2   32   40     5     4    4.8413E+03  0.0000E+00   4.8413E+03  0.000E+00  0.000E+00  0.000E+00  2.03004E+03  3.583E-02  3.000E+00  0.000E+00  0.000E+00  0.000E+00
   2   32   41     5     5    4.8413E+03  0.0000E+00   4.8413E+03  0.000E+00  0.000E+00  0.000E+00  2.02603E+03  2.998E-02  3.000E+00  0.000E+00  0.000E+00  0.000E+00
   2   32   42     5     6    4.8413E+03  0.0000E+00   4.8413E+03  0.000E+00  0.000E+00  0.000E+00  2.02204E+03  3.524E-02  3.000E+00  0.000E+00  0.000E+00  0.000E+00
   2   32   43     5     7    4.8413E+03  0.0000E+00   4.8413E+03  0.000E+00  0.000E+00  0.000E+00  2.02004E+03  3.906E-02  3.000E+00  0.000E+00  0.000E+00  0.000E+00
   2   33   44     5     8    4.8413E+03  0.0000E+00   4.8413E+03  0.000E+00  0.000E+00  0.000E+00  2.01904E+03  3.911E-02  3.000E+00  0.000E+00  0.000E+00  0.000E+00
   2   34   47     6     1    5.8620E+03  3.8489E+00   5.8581E+03  0.000E+00  0.000E+00  0.000E+00  2.00703E+03  2.666E-02  3.000E+00  6.750E+02  0.000E+00  0.000E+00
   2   34   48     6     2    5.8581E+03 -1.2985E+02   5.9880E+03  0.000E+00  0.000E+00  0.000E+00  2.00103E+03  3.495E-02  3.000E+00  1.630E+03  0.000E+00  0.000E+00
   2   35   49     6     3    5.9880E+03 -2.6511E+02   6.2531E+03  0.000E+00  0.000E+00  0.000E+00  1.99404E+03  3.748E-02  3.000E+00  1.630E+03  0.000E+00  0.000E+00
   2   35   50     6     4    6.2531E+03 -1.9407E+02   6.4471E+03  0.000E+00  0.000E+00  0.000E+00  1.99005E+03  4.588E-02  3.000E+00  1.350E+03  0.000E+00  0.000E+00
   2   35   51     6     5    6.4471E+03  1.8642E+01   6.4285E+03  0.000E+00  0.000E+00  0.000E+00  1.98905E+03  4.634E-02  3.000E+00  1.630E+03  0.000E+00  0.000E+00
   2   36   52     6     6    6.4285E+03 -1.2383E+02   6.5523E+03  0.000E+00  0.000E+00  0.000E+00  1.98404E+03  4.123E-02  3.000E+00  1.630E+03  0.000E+00  0.000E+00
   2   36   53     6     7    6.5523E+03 -2.6010E+02   6.8124E+03  0.000E+00  0.000E+00  0.000E+00  1.98005E+03  5.352E-02  3.000E+00  1.630E+03  0.000E+00  0.000E+00
   2   37   54     6     8    6.8124E+03 -5.0045E+01   6.8625E+03  0.000E+00  0.000E+00  0.000E+00  1.98006E+03  5.690E-02  3.000E+00  1.909E+03  0.000E+00  0.000E+00
   2   36   55     6     9    6.8625E+03 -9.2495E+01   6.9550E+03  0.000E+00  0.000E+00  0.000E+00  1.97604E+03  4.349E-02  3.000E+00  9.546E+02  0.000E+00  0.000E+00
   2   36   34     7     1    1.9563E+03 -5.2067E+01   2.0084E+03  0.000E+00  0.000E+00  0.000E+00  2.07701E+03  1.318E-02  3.000E+00  9.546E+02  0.000E+00  0.000E+00
   2   35   35     7     2    2.0084E+03 -1.1096E+02   2.1193E+03  0.000E+00  0.000E+00  0.000E+00  2.06702E+03  1.779E-02  3.000E+00  1.630E+03  0.000E+00  0.000E+00
   2   35   36     7     3    2.1193E+03  1.9335E+01   2.1000E+03  0.000E+00  0.000E+00  0.000E+00  2.06202E+03  1.778E-02  3.000E+00  1.350E+03  0.000E+00  0.000E+00
   2   35   37     7     4    2.1000E+03 -6.3279E+01   2.1633E+03  0.000E+00  0.000E+00  0.000E+00  2.05401E+03  1.366E-02  3.000E+00  6.750E+02  0.000E+00  0.000E+00
   2   52   49     8     1    0.0000E+00 -1.9837E+02   1.9837E+02  0.000E+00  0.000E+00  0.000E+00  2.12100E+03  2.812E-03  3.000E+00  1.909E+03  0.000E+00  0.000E+00
   2   51   48     8     2    1.9837E+02 -2.3957E+02   4.3794E+02  0.000E+00  0.000E+00  0.000E+00  2.11701E+03  9.031E-03  3.000E+00  1.909E+03  0.000E+00  0.000E+00
   2   50   47     8     3    4.3794E+02  1.8828E+02   2.4965E+02  0.000E+00  0.000E+00  0.000E+00  2.11701E+03  7.328E-03  3.000E+00  1.630E+03  0.000E+00  0.000E+00
   2   49   47     8     4    2.4965E+02 -2.6427E+02   5.1392E+02  0.000E+00  0.000E+00  0.000E+00  2.10901E+03  7.299E-03  3.000E+00  1.630E+03  0.000E+00  0.000E+00
   2   48   46     8     5    5.1392E+02  1.2085E+01   5.0184E+02  0.000E+00  0.000E+00  0.000E+00  2.10701E+03  1.140E-02  3.000E+00  1.630E+03  0.000E+00  0.000E+00
   2   47   46     8     6    5.0184E+02  1.6408E+02   3.3776E+02  0.000E+00  0.000E+00  0.000E+00  2.10501E+03  9.613E-03  3.000E+00  1.350E+03  0.000E+00  0.000E+00
   2   46   46     8     7    3.3776E+02  8.1000E+01   2.5676E+02  0.000E+00  0.000E+00  0.000E+00  2.10301E+03  6.919E-03  3.000E+00  1.350E+03  8.315E+01 -2.152E+00
   2   45   46     8     8    2.5676E+02  8.1000E+01   1.7576E+02  0.000E+00  0.000E+00  0.000E+00  2.09900E+03  4.644E-03  3.000E+00  1.350E+03  8.384E+01 -2.843E+00
   2   44   46     8     9    1.7576E+02  8.1000E+01   9.4756E+01  0.000E+00  0.000E+00  0.000E+00  2.09100E+03  3.053E-03  3.000E+00  1.350E+03  8.388E+01 -2.880E+00
   2   43   46     8    10    9.4756E+01  8.1000E+01   1.3756E+01  0.000E+00  0.000E+00  0.000E+00  2.08000E+03  1.765E-03  3.000E+00  1.350E+03  8.378E+01 -2.778E+00
   2   42   46     8    11    1.3756E+01  1.3756E+01   0.0000E+00  0.000E+00  0.000E+00  0.000E+00  2.07200E+03  1.816E-04  3.000E+00  1.630E+03  0.000E+00  1.376E+01
   2   41   45     8    12    0.0000E+00  0.0000E+00   0.0000E+00  0.000E+00  0.000E+00  0.000E+00  2.06000E+03  0.000E+00  3.000E+00  1.630E+03  0.000E+00  0.000E+00
   2   40   45     8    13    0.0000E+00  0.0000E+00   0.0000E+00  0.000E+00  0.000E+00  0.000E+00  2.05400E+03  0.000E+00  3.000E+00  1.350E+03  0.000E+00  0.000E+00
   2   39   45     8    14    0.0000E+00  0.0000E+00   0.0000E+00  0.000E+00  0.000E+00  0.000E+00  2.04600E+03  0.000E+00  3.000E+00  1.350E+03  0.000E+00  0.000E+00
   2   38   45     8    15    0.0000E+00  0.0000E+00   0.0000E+00  0.000E+00  0.000E+00  0.000E+00  2.03500E+03  0.000E+00  3.000E+00  1.350E+03  0.000E+00  0.000E+00
   2   37   45     8    16    0.0000E+00 -2.3650E+01   2.3650E+01  0.000E+00  0.000E+00  0.000E+00  2.02700E+03  8.204E-04  3.000E+00  1.630E+03  0.000E+00  0.000E+00
   2   36   46     8    17    2.3650E+01  2.3650E+01   0.0000E+00  0.000E+00  0.000E+00  0.000E+00  2.02100E+03  2.861E-04  3.000E+00  1.630E+03  0.000E+00  2.365E+01
   2   35   46     8    18    0.0000E+00  0.0000E+00   0.0000E+00  0.000E+00  0.000E+00  0.000E+00  2.01400E+03  0.000E+00  3.000E+00  1.630E+03  0.000E+00  0.000E+00
   2   34   47     8    19    0.0000E+00 -1.9402E+01   1.9402E+01  0.000E+00  0.000E+00  0.000E+00  2.00700E+03  6.344E-04  3.000E+00  9.546E+02  0.000E+00  0.000E+00
   2   37   26     9     1    0.0000E+00  0.0000E+00   0.0000E+00  0.000E+00  0.000E+00  0.000E+00  2.14700E+03  0.000E+00  3.000E+00  1.350E+03  0.000E+00  0.000E+00
   2   37   27     9     2    0.0000E+00 -4.1183E+01   4.1183E+01  0.000E+00  0.000E+00  0.000E+00  2.13400E+03  9.443E-04  3.000E+00  1.350E+03  0.000E+00  0.000E+00
   2   37   28     9     3    4.1183E+01 -1.2736E+02   1.6854E+02  0.000E+00  0.000E+00  0.000E+00  2.12500E+03  2.773E-03  3.000E+00  1.630E+03  0.000E+00  0.000E+00
   2   36   29     9     4    1.6854E+02  2.6436E+01   1.4211E+02  0.000E+00  0.000E+00  0.000E+00  2.11500E+03  3.567E-03  3.000E+00  1.630E+03  0.000E+00  0.000E+00
   2   36   30     9     5    1.4211E+02 -7.1517E+01   2.1362E+02  0.000E+00  0.000E+00  0.000E+00  2.10700E+03  3.720E-03  3.000E+00  1.350E+03  0.000E+00  0.000E+00
   2   36   31     9     6    2.1362E+02 -1.9444E+02   4.0807E+02  0.000E+00  0.000E+00  0.000E+00  2.09801E+03  5.296E-03  3.000E+00  1.350E+03  0.000E+00  0.000E+00
   2   36   32     9     7    4.0807E+02 -1.4342E+02   5.5149E+02  0.000E+00  0.000E+00  0.000E+00  2.09101E+03  7.152E-03  3.000E+00  1.350E+03  0.000E+00  0.000E+00
   2   36   33     9     8    5.5149E+02 -1.4162E+02   6.9311E+02  0.000E+00  0.000E+00  0.000E+00  2.08401E+03  8.360E-03  3.000E+00  1.350E+03  0.000E+00  0.000E+00
   2   36   34     9     9    6.9311E+02 -4.1022E+01   7.3413E+02  0.000E+00  0.000E+00  0.000E+00  2.07701E+03  6.955E-03  3.000E+00  6.750E+02  0.000E+00  0.000E+00
   2   58   37    10     1    0.0000E+00  0.0000E+00   0.0000E+00  0.000E+00  0.000E+00  0.000E+00  2.15000E+03  0.000E+00  3.000E+00  1.350E+03  0.000E+00  0.000E+00
   2   57   37    10     2    0.0000E+00 -7.9842E+01   7.9842E+01  0.000E+00  0.000E+00  0.000E+00  2.14700E+03  2.096E-03  3.000E+00  1.630E+03  0.000E+00  0.000E+00
   2   56   38    10     3    7.9842E+01 -9.5018E+00   8.9343E+01  0.000E+00  0.000E+00  0.000E+00  2.14300E+03  3.050E-03  3.000E+00  1.630E+03  0.000E+00  0.000E+00
   2   55   38    10     4    8.9343E+01 -1.7870E+02   2.6805E+02  0.000E+00  0.000E+00  0.000E+00  2.13800E+03  4.677E-03  3.000E+00  1.350E+03  0.000E+00  0.000E+00
   2   54   38    10     5    2.6805E+02 -1.2092E+02   3.8897E+02  0.000E+00  0.000E+00  0.000E+00  2.13501E+03  7.347E-03  3.000E+00  1.350E+03  0.000E+00  0.000E+00
   2   53   38    10     6    3.8897E+02 -1.1432E+02   5.0329E+02  0.000E+00  0.000E+00  0.000E+00  2.13201E+03  8.828E-03  3.000E+00  1.350E+03  0.000E+00  0.000E+00
   2   52   38    10     7    5.0329E+02 -1.7297E+02   6.7625E+02  0.000E+00  0.000E+00  0.000E+00  2.12901E+03  1.247E-02  3.000E+00  1.630E+03  0.000E+00  0.000E+00
   2   51   39    10     8    6.7625E+02  6.5117E+00   6.6974E+02  0.000E+00  0.000E+00  0.000E+00  2.12801E+03  1.350E-02  3.000E+00  1.630E+03  0.000E+00  0.000E+00
   2   50   39    10     9    6.6974E+02 -8.9296E+01   7.5904E+02  0.000E+00  0.000E+00  0.000E+00  2.12501E+03  1.183E-02  3.000E+00  1.630E+03  0.000E+00  0.000E+00
   2   49   38    10    10    7.5904E+02 -1.5959E+02   9.1863E+02  0.000E+00  0.000E+00  0.000E+00  2.12101E+03  1.366E-02  3.000E+00  1.909E+03  0.000E+00  0.000E+00
   2   48   37    10    11    9.1863E+02  1.4838E+01   9.0379E+02  0.000E+00  0.000E+00  0.000E+00  2.11801E+03  1.221E-02  3.000E+00  1.909E+03  0.000E+00  0.000E+00
   2   47   36    10    12    9.0379E+02 -3.4404E+02   1.2478E+03  0.000E+00  0.000E+00  0.000E+00  2.10901E+03  1.287E-02  3.000E+00  1.630E+03  0.000E+00  0.000E+00
   2   46   36    10    13    1.2478E+03 -1.3801E+02   1.3858E+03  0.000E+00  0.000E+00  0.000E+00  2.10602E+03  1.614E-02  3.000E+00  1.350E+03  0.000E+00  0.000E+00
   2   45   36    10    14    1.3858E+03 -1.7274E+02   1.5586E+03  0.000E+00  0.000E+00  0.000E+00  2.10202E+03  1.725E-02  3.000E+00  1.350E+03  0.000E+00  0.000E+00
   2   44   36    10    15    1.5586E+03 -1.0302E+02   1.6616E+03  0.000E+00  0.000E+00  0.000E+00  2.09902E+03  1.907E-02  3.000E+00  1.350E+03  0.000E+00  0.000E+00
   2   43   36    10    16    1.6616E+03 -2.3501E+01   1.6851E+03  0.000E+00  0.000E+00  0.000E+00  2.09602E+03  1.828E-02  3.000E+00  1.630E+03  0.000E+00  0.000E+00
   2   42   37    10    17    1.6851E+03  1.7314E+02   1.5120E+03  0.000E+00  0.000E+00  0.000E+00  2.09001E+03  1.497E-02  3.000E+00  1.630E+03  0.000E+00  0.000E+00
   2   41   37    10    18    1.5120E+03 -2.6709E+02   1.7791E+03  0.000E+00  0.000E+00  0.000E+00  2.08001E+03  1.439E-02  3.000E+00  1.350E+03  0.000E+00  0.000E+00
   2   40   37    10    19    1.7791E+03 -3.3129E+02   2.1103E+03  0.000E+00  0.000E+00  0.000E+00  2.07402E+03  2.001E-02  3.000E+00  1.630E+03  0.000E+00  0.000E+00
   2   39   38    10    20    2.1103E+03 -3.3996E+01   2.1443E+03  0.000E+00  0.000E+00  0.000E+00  2.07102E+03  2.277E-02  3.000E+00  1.630E+03  0.000E+00  0.000E+00
   2   38   38    10    21    2.1443E+03  1.9908E+01   2.1244E+03  0.000E+00  0.000E+00  0.000E+00  2.06702E+03  2.050E-02  3.000E+00  1.630E+03  0.000E+00  0.000E+00
   2   37   37    10    22    2.1244E+03 -2.9178E+02   2.4162E+03  0.000E+00  0.000E+00  0.000E+00  2.06102E+03  2.127E-02  3.000E+00  1.630E+03  0.000E+00  0.000E+00
   2   36   37    10    23    2.4162E+03 -2.0103E+02   2.6172E+03  0.000E+00  0.000E+00  0.000E+00  2.05702E+03  2.380E-02  3.000E+00  1.350E+03  0.000E+00  0.000E+00
   2   35   37    10    24    2.6172E+03 -6.0749E+01   2.6780E+03  0.000E+00  0.000E+00  0.000E+00  2.05402E+03  1.740E-02  3.000E+00  6.750E+02  0.000E+00  0.000E+00
   2   36   55    11     1    7.0486E+03 -7.0482E+01   7.1190E+03  0.000E+00  0.000E+00  0.000E+00  1.97604E+03  3.597E-02  3.000E+00  6.750E+02  0.000E+00  0.000E+00
   2   36   56    11     2    7.1190E+03 -1.2021E+02   7.2392E+03  0.000E+00  0.000E+00  0.000E+00  1.97506E+03  6.091E-02  3.000E+00  1.630E+03  0.000E+00  0.000E+00
   2   37   57    11     3    7.2392E+03 -1.2401E+02   7.3633E+03  0.000E+00  0.000E+00  0.000E+00  1.97306E+03  6.153E-02  3.000E+00  1.630E+03  0.000E+00  0.000E+00
   2   37   58    11     4    7.3633E+03 -7.4704E+01   7.4380E+03  0.000E+00  0.000E+00  0.000E+00  1.97208E+03  8.151E-02  3.000E+00  1.350E+03  0.000E+00  0.000E+00
   2   37   59    11     5    7.4380E+03  3.6277E+01   7.4017E+03  0.000E+00  0.000E+00  0.000E+00  1.97207E+03  6.631E-02  3.000E+00  1.350E+03  0.000E+00  0.000E+00
   2   37   60    11     6    7.4017E+03 -4.5728E+01   7.4474E+03  0.000E+00  0.000E+00  0.000E+00  1.97005E+03  5.332E-02  3.000E+00  1.630E+03  0.000E+00  0.000E+00
   2   38   61    11     7    7.4474E+03 -1.5389E+02   7.6013E+03  0.000E+00  0.000E+00  0.000E+00  1.96705E+03  4.859E-02  3.000E+00  1.630E+03  0.000E+00  0.000E+00
   2   38   62    11     8    7.6013E+03 -1.0367E+02   7.7050E+03  0.000E+00  0.000E+00  0.000E+00  1.96304E+03  4.457E-02  3.000E+00  6.750E+02  0.000E+00  0.000E+00
   2   51   11    12     1    0.0000E+00 -3.8960E+02   3.8960E+02  0.000E+00  0.000E+00  0.000E+00  2.38700E+03  4.035E-03  3.000E+00  1.909E+03  0.000E+00  0.000E+00
   2   50   12    12     2    3.8960E+02 -5.9737E+01   4.4934E+02  0.000E+00  0.000E+00  0.000E+00  2.37501E+03  6.096E-03  3.000E+00  1.630E+03  0.000E+00  0.000E+00
   2   49   12    12     3    4.4934E+02 -3.8761E+02   8.3695E+02  0.000E+00  0.000E+00  0.000E+00  2.36501E+03  8.232E-03  3.000E+00  1.630E+03  0.000E+00  0.000E+00
   2   48   13    12     4    8.3695E+02 -1.8068E+02   1.0176E+03  0.000E+00  0.000E+00  0.000E+00  2.35601E+03  1.101E-02  3.000E+00  1.630E+03  0.000E+00  0.000E+00
   2   48   14    12     5    1.0176E+03 -1.7005E+02   1.1877E+03  0.000E+00  0.000E+00  0.000E+00  2.35001E+03  1.198E-02  3.000E+00  1.630E+03  0.000E+00  0.000E+00
   2   47   15    12     6    1.1877E+03 -1.7022E+02   1.3579E+03  0.000E+00  0.000E+00  0.000E+00  2.34001E+03  1.331E-02  3.000E+00  1.630E+03  0.000E+00  0.000E+00
   2   47   16    12     7    1.3579E+03 -1.4110E+02   1.4990E+03  0.000E+00  0.000E+00  0.000E+00  2.33502E+03  1.566E-02  3.000E+00  1.630E+03  0.000E+00  0.000E+00
   2   46   17    12     8    1.4990E+03  6.6911E+01   1.4321E+03  0.000E+00  0.000E+00  0.000E+00  2.32901E+03  1.479E-02  3.000E+00  1.630E+03  0.000E+00  0.000E+00
   2   46   18    12     9    1.4321E+03  1.5116E+02   1.2809E+03  0.000E+00  0.000E+00  0.000E+00  2.32101E+03  1.150E-02  3.000E+00  1.350E+03  0.000E+00  0.000E+00
   2   46   19    12    10    1.2809E+03 -4.5195E+02   1.7329E+03  0.000E+00  0.000E+00  0.000E+00  2.30601E+03  1.392E-02  3.000E+00  1.350E+03  0.000E+00  0.000E+00
   2   46   20    12    11    1.7329E+03  7.6160E+02   9.7126E+02  0.000E+00  0.000E+00  0.000E+00  2.30601E+03  1.100E-02  3.000E+00  1.630E+03  0.000E+00  0.000E+00
   2   45   21    12    12    9.7126E+02 -3.1798E+02   1.2892E+03  0.000E+00  0.000E+00  0.000E+00  2.27401E+03  8.755E-03  3.000E+00  1.909E+03  0.000E+00  0.000E+00
   2   44   22    12    13    1.2892E+03 -1.7462E+02   1.4639E+03  0.000E+00  0.000E+00  0.000E+00  2.25001E+03  1.067E-02  3.000E+00  1.909E+03  0.000E+00  0.000E+00
   2   43   23    12    14    1.4639E+03  1.4296E+02   1.3209E+03  0.000E+00  0.000E+00  0.000E+00  2.23101E+03  1.082E-02  3.000E+00  1.909E+03  0.000E+00  0.000E+00
   2   42   24    12    15    1.3209E+03 -7.9241E+01   1.4001E+03  0.000E+00  0.000E+00  0.000E+00  2.20801E+03  1.114E-02  3.000E+00  1.630E+03  0.000E+00  0.000E+00
   2   42   25    12    16    1.4001E+03 -1.7596E+01   1.4177E+03  0.000E+00  0.000E+00  0.000E+00  2.20001E+03  1.226E-02  3.000E+00  1.350E+03  0.000E+00  0.000E+00
   2   42   26    12    17    1.4177E+03  1.2198E+02   1.2958E+03  0.000E+00  0.000E+00  0.000E+00  2.18801E+03  1.062E-02  3.000E+00  1.350E+03  0.000E+00  0.000E+00
   2   42   27    12    18    1.2958E+03 -2.6290E+02   1.5586E+03  0.000E+00  0.000E+00  0.000E+00  2.17001E+03  1.106E-02  3.000E+00  1.350E+03  0.000E+00  0.000E+00
   2   42   28    12    19    1.5586E+03 -9.3093E+01   1.6517E+03  0.000E+00  0.000E+00  0.000E+00  2.15901E+03  1.269E-02  3.000E+00  1.630E+03  0.000E+00  0.000E+00
   2   41   29    12    20    1.6517E+03  1.4945E+02   1.5023E+03  0.000E+00  0.000E+00  0.000E+00  2.14201E+03  1.265E-02  3.000E+00  1.909E+03  0.000E+00  0.000E+00
   2   40   30    12    21    1.5023E+03  7.1963E+01   1.4303E+03  0.000E+00  0.000E+00  0.000E+00  2.12701E+03  1.274E-02  3.000E+00  1.909E+03  0.000E+00  0.000E+00
   2   39   31    12    22    1.4303E+03  1.1455E+02   1.3158E+03  0.000E+00  0.000E+00  0.000E+00  2.11501E+03  1.269E-02  3.000E+00  1.909E+03  1.151E+02 -5.872E-01
   2   38   32    12    23    1.3158E+03  1.1455E+02   1.2012E+03  0.000E+00  0.000E+00  0.000E+00  2.10301E+03  1.175E-02  3.000E+00  1.909E+03  1.178E+02 -3.246E+00
   2   37   33    12    24    1.2012E+03  3.4411E+01   1.1668E+03  0.000E+00  0.000E+00  0.000E+00  2.08901E+03  1.133E-02  3.000E+00  1.909E+03  0.000E+00  0.000E+00
   2   36   34    12    25    1.1668E+03 -5.5366E+01   1.2222E+03  0.000E+00  0.000E+00  0.000E+00  2.07701E+03  9.729E-03  3.000E+00  9.546E+02  0.000E+00  0.000E+00
   2   38   62    13     1    7.8916E+03 -1.1038E+02   8.0020E+03  0.000E+00  0.000E+00  0.000E+00  1.96303E+03  3.463E-02  3.000E+00  6.750E+02  0.000E+00  0.000E+00
   2   38   63    13     2    8.0020E+03 -8.0343E+00   8.0100E+03  0.000E+00  0.000E+00  0.000E+00  1.96527E+03  2.265E+00  3.000E+00  1.350E+03  0.000E+00  0.000E+00
   2   38   64    13     3    8.0100E+03  2.6279E+01   7.9837E+03  0.000E+00  0.000E+00  0.000E+00  1.96526E+03  2.264E+00  3.000E+00  1.350E+03  0.000E+00  0.000E+00
   2   38   65    13     4    7.9837E+03 -1.6839E+01   8.0006E+03  0.000E+00  0.000E+00  0.000E+00  1.96306E+03  6.139E-02  3.000E+00  6.750E+02  0.000E+00  0.000E+00
   2   46   61    14     1    0.0000E+00  0.0000E+00   0.0000E+00  0.000E+00  0.000E+00  0.000E+00  2.01700E+03  0.000E+00  3.000E+00  1.350E+03  0.000E+00  0.000E+00
   2   45   61    14     2    0.0000E+00  0.0000E+00   0.0000E+00  0.000E+00  0.000E+00  0.000E+00  2.01000E+03  0.000E+00  3.000E+00  1.350E+03  0.000E+00  0.000E+00
   2   44   61    14     3    0.0000E+00  0.0000E+00   0.0000E+00  0.000E+00  0.000E+00  0.000E+00  2.00600E+03  0.000E+00  3.000E+00  1.350E+03  0.000E+00  0.000E+00
   2   43   61    14     4    0.0000E+00  0.0000E+00   0.0000E+00  0.000E+00  0.000E+00  0.000E+00  1.99900E+03  0.000E+00  3.000E+00  1.350E+03  0.000E+00  0.000E+00
   2   42   61    14     5    0.0000E+00  0.0000E+00   0.0000E+00  0.000E+00  0.000E+00  0.000E+00  1.99300E+03  0.000E+00  3.000E+00  1.350E+03  0.000E+00  0.000E+00
   2   41   61    14     6    0.0000E+00  0.0000E+00   0.0000E+00  0.000E+00  0.000E+00  0.000E+00  1.98500E+03  0.000E+00  3.000E+00  1.350E+03  0.000E+00  0.000E+00
   2   40   61    14     7    0.0000E+00  0.0000E+00   0.0000E+00  0.000E+00  0.000E+00  0.000E+00  1.97800E+03  0.000E+00  3.000E+00  1.350E+03  0.000E+00  0.000E+00
   2   39   61    14     8    0.0000E+00  0.0000E+00   0.0000E+00  0.000E+00  0.000E+00  0.000E+00  1.97300E+03  0.000E+00  3.000E+00  1.630E+03  0.000E+00  0.000E+00
   2   38   62    14     9    0.0000E+00 -1.8661E+02   1.8661E+02  0.000E+00  0.000E+00  0.000E+00  1.96300E+03  2.669E-03  3.000E+00  9.546E+02  0.000E+00  0.000E+00
   2   39   70    15     1    8.3269E+03  1.1834E+00   8.3257E+03  0.000E+00  0.000E+00  0.000E+00  1.94603E+03  3.461E-02  3.000E+00  6.750E+02  0.000E+00  0.000E+00
   2   40   75    16     1    1.5000E+04 -3.1143E+01   1.5031E+04  0.000E+00  0.000E+00  0.000E+00  1.93406E+03  6.245E-02  3.000E+00  6.750E+02  0.000E+00  0.000E+00
   2   40   76    16     2    1.5031E+04  0.0000E+00   1.5031E+04  0.000E+00  0.000E+00  0.000E+00  1.93309E+03  8.968E-02  3.000E+00  0.000E+00  0.000E+00  0.000E+00
   2   55   73    17     1    0.0000E+00  0.0000E+00   0.0000E+00  0.000E+00  0.000E+00  0.000E+00  2.04100E+03  0.000E+00  3.000E+00  1.350E+03  0.000E+00  0.000E+00
   2   54   73    17     2    0.0000E+00  0.0000E+00   0.0000E+00  0.000E+00  0.000E+00  0.000E+00  2.02900E+03  0.000E+00  3.000E+00  1.350E+03  0.000E+00  0.000E+00
   2   53   73    17     3    0.0000E+00  0.0000E+00   0.0000E+00  0.000E+00  0.000E+00  0.000E+00  2.01700E+03  0.000E+00  3.000E+00  1.350E+03  0.000E+00  0.000E+00
   2   52   73    17     4    0.0000E+00  0.0000E+00   0.0000E+00  0.000E+00  0.000E+00  0.000E+00  2.01000E+03  0.000E+00  3.000E+00  1.630E+03  0.000E+00  0.000E+00
   2   51   72    17     5    0.0000E+00  0.0000E+00   0.0000E+00  0.000E+00  0.000E+00  0.000E+00  1.99800E+03  0.000E+00  3.000E+00  1.630E+03  0.000E+00  0.000E+00
   2   50   72    17     6    0.0000E+00 -5.3017E+01   5.3017E+01  0.000E+00  0.000E+00  0.000E+00  1.97500E+03  1.318E-03  3.000E+00  1.350E+03  0.000E+00  0.000E+00
   2   49   72    17     7    5.3017E+01  0.0000E+00   5.3017E+01  0.000E+00  0.000E+00  0.000E+00  1.95600E+03  1.901E-03  3.000E+00  0.000E+00  0.000E+00  0.000E+00
   2   48   72    17     8    5.3017E+01  0.0000E+00   5.3017E+01  0.000E+00  0.000E+00  0.000E+00  1.95200E+03  1.903E-03  3.000E+00  0.000E+00  0.000E+00  0.000E+00
   2   47   72    17     9    5.3017E+01  0.0000E+00   5.3017E+01  0.000E+00  0.000E+00  0.000E+00  1.95000E+03  1.949E-03  3.000E+00  0.000E+00  0.000E+00  0.000E+00
   2   46   72    17    10    5.3017E+01  0.0000E+00   5.3017E+01  0.000E+00  0.000E+00  0.000E+00  1.94800E+03  1.994E-03  3.000E+00  0.000E+00  0.000E+00  0.000E+00
   2   45   72    17    11    5.3017E+01  0.0000E+00   5.3017E+01  0.000E+00  0.000E+00  0.000E+00  1.94400E+03  2.024E-03  3.000E+00  0.000E+00  0.000E+00  0.000E+00
   2   44   73    17    12    5.3017E+01  0.0000E+00   5.3017E+01  0.000E+00  0.000E+00  0.000E+00  1.94200E+03  2.060E-03  3.000E+00  0.000E+00  0.000E+00  0.000E+00
   2   43   73    17    13    5.3017E+01  0.0000E+00   5.3017E+01  0.000E+00  0.000E+00  0.000E+00  1.94200E+03  2.260E-03  3.000E+00  0.000E+00  0.000E+00  0.000E+00
   2   42   73    17    14    5.3017E+01  0.0000E+00   5.3017E+01  0.000E+00  0.000E+00  0.000E+00  1.94100E+03  2.313E-03  3.000E+00  0.000E+00  0.000E+00  0.000E+00
   2   34   45    18     1    5.7358E+03 -3.7719E+01   5.7735E+03  0.000E+00  0.000E+00  0.000E+00  2.01794E+03  3.974E-02  3.000E+00  1.630E+03  0.000E+00  0.000E+00
   2   34   46    18     2    5.7735E+03 -7.4346E+01   5.8479E+03  0.000E+00  0.000E+00  0.000E+00  2.01104E+03  3.647E-02  3.000E+00  1.350E+03  0.000E+00  0.000E+00
   2   34   47    18     3    5.8479E+03  5.2930E+00   5.8426E+03  0.000E+00  0.000E+00  0.000E+00  2.00703E+03  2.880E-02  3.000E+00  6.750E+02  0.000E+00  0.000E+00
   2   41   74    19     1    9.8323E+03 -2.1309E+02   1.0045E+04  0.000E+00  0.000E+00  0.000E+00  1.93805E+03  5.410E-02  3.000E+00  1.909E+03  0.000E+00  0.000E+00
   2   40   75    19     2    1.0045E+04 -5.1607E+01   1.0097E+04  0.000E+00  0.000E+00  0.000E+00  1.93405E+03  5.453E-02  3.000E+00  9.546E+02  0.000E+00  0.000E+00
   2   39   66    20     1    0.0000E+00  0.0000E+00   0.0000E+00  0.000E+00  0.000E+00  0.000E+00  1.96250E+03  0.000E+00  1.500E+00  8.148E+02  0.000E+00  0.000E+00
   2   39   67    20     2    0.0000E+00  0.0000E+00   0.0000E+00  0.000E+00  0.000E+00  0.000E+00  1.96225E+03  0.000E+00  1.500E+00  6.750E+02  0.000E+00  0.000E+00
   2   40   68    20     3    0.0000E+00  0.0000E+00   0.0000E+00  0.000E+00  0.000E+00  0.000E+00  1.96200E+03  0.000E+00  1.500E+00  9.546E+02  0.000E+00  0.000E+00
   2   41   69    20     4    0.0000E+00  0.0000E+00   0.0000E+00  0.000E+00  0.000E+00  0.000E+00  1.96175E+03  0.000E+00  1.500E+00  8.148E+02  0.000E+00  0.000E+00
   2   42   69    20     5    0.0000E+00  0.0000E+00   0.0000E+00  0.000E+00  0.000E+00  0.000E+00  1.96150E+03  0.000E+00  1.500E+00  8.148E+02  0.000E+00  0.000E+00
   2   43   70    20     6    0.0000E+00  0.0000E+00   0.0000E+00  0.000E+00  0.000E+00  0.000E+00  1.96125E+03  0.000E+00  1.500E+00  8.148E+02  0.000E+00  0.000E+00
   2   38   66    21     1    8.0006E+03 -7.4397E+01   8.0750E+03  0.000E+00  0.000E+00  0.000E+00  1.96005E+03  5.285E-02  3.000E+00  1.350E+03  0.000E+00  0.000E+00
   2   38   67    21     2    8.0750E+03  9.4334E+00   8.0655E+03  0.000E+00  0.000E+00  0.000E+00  1.95805E+03  5.067E-02  3.000E+00  1.630E+03  0.000E+00  0.000E+00
   2   39   68    21     3    8.0655E+03 -1.8328E+01   8.0839E+03  0.000E+00  0.000E+00  0.000E+00  1.95305E+03  4.554E-02  3.000E+00  1.630E+03  0.000E+00  0.000E+00
   2   39   69    21     4    8.0839E+03 -2.1832E+02   8.3022E+03  0.000E+00  0.000E+00  0.000E+00  1.94805E+03  4.833E-02  3.000E+00  1.350E+03  0.000E+00  0.000E+00
   2   39   70    21     5    8.3022E+03  5.7875E+00   8.2964E+03  0.000E+00  0.000E+00  0.000E+00  1.94604E+03  4.143E-02  3.000E+00  6.750E+02  0.000E+00  0.000E+00
   2   38   71    22     1    4.0000E+03 -5.8466E+01   4.0585E+03  0.000E+00  0.000E+00  0.000E+00  1.94556E+03  5.988E-02  3.000E+00  3.259E+02  0.000E+00  0.000E+00
   2   38   72    22     2    4.0585E+03 -4.2282E+01   4.1007E+03  0.000E+00  0.000E+00  0.000E+00  1.94506E+03  6.033E-02  3.000E+00  3.259E+02  0.000E+00  0.000E+00
   2   39   73    22     3    4.1007E+03  1.1706E+02   3.9837E+03  0.000E+00  0.000E+00  0.000E+00  1.94456E+03  6.000E-02  3.000E+00  3.259E+02  0.000E+00  0.000E+00
   2   39   74    22     4    3.9837E+03  8.1000E+01   3.9027E+03  0.000E+00  0.000E+00  0.000E+00  1.94406E+03  5.587E-02  3.000E+00  2.700E+02  8.410E+01 -3.101E+00
   2   39   75    22     5    3.9027E+03  8.1000E+01   3.8217E+03  0.000E+00  0.000E+00  0.000E+00  1.94356E+03  5.517E-02  3.000E+00  2.700E+02  8.408E+01 -3.077E+00
   2   39   76    22     6    3.8217E+03  0.0000E+00   3.8217E+03  0.000E+00  0.000E+00  0.000E+00  1.94305E+03  5.483E-02  3.000E+00  0.000E+00  0.000E+00  0.000E+00
   2   39   71    23     1    4.3257E+03 -1.9297E+02   4.5187E+03  0.000E+00  0.000E+00  0.000E+00  1.94204E+03  3.907E-02  3.000E+00  1.630E+03  0.000E+00  0.000E+00
   2   40   72    23     2    4.5187E+03 -7.9180E+01   4.5979E+03  0.000E+00  0.000E+00  0.000E+00  1.94104E+03  4.254E-02  3.000E+00  1.630E+03  0.000E+00  0.000E+00
   2   40   73    23     3    4.5979E+03 -1.7926E+02   4.7771E+03  0.000E+00  0.000E+00  0.000E+00  1.93804E+03  3.824E-02  3.000E+00  1.350E+03  0.000E+00  0.000E+00
   2   40   74    23     4    4.7771E+03 -7.7561E+01   4.8547E+03  0.000E+00  0.000E+00  0.000E+00  1.93604E+03  4.156E-02  3.000E+00  1.350E+03  0.000E+00  0.000E+00
   2   40   75    23     5    4.8547E+03 -4.8268E+01   4.9030E+03  0.000E+00  0.000E+00  0.000E+00  1.93404E+03  3.708E-02  3.000E+00  6.750E+02  0.000E+00  0.000E+00



1
  VOLUMETRIC BUDGET FOR UNSATURATED ZONE BENEATH STREAMS AT END OF TIME STEP    11 STRESS PERIOD   2
  ------------------------------------------------------------------------------------------------

    CUMULATIVE VOLUMES             L**3    RATES FOR THIS TIME STEP         L**3/T
    ------------------                     ------------------------


          STREAM LOSS =        10214.4863            STREAM LOSS =         1064.0942
    CHANGE IN STORAGE =         1363.9458      CHANGE IN STORAGE =          155.1841
       RECHARGE TO GW =         8850.5381         RECHARGE TO GW =          908.9102

             TOTAL IN =        10214.4863               TOTAL IN =         1064.0942

            TOTAL OUT =        10214.4844              TOTAL OUT =         1064.0944

             IN - OUT =        1.9531E-03               IN - OUT =       -1.2207E-04

  PERCENT DISCREPANCY =            0.00      PERCENT DISCREPANCY =            -0.00



 ***WARNING***NUZTOP IS 3 AND ALL LAYERS  IN ROW           39  AND COLUMN 
          76  ARE INACTIVE.
 UNSATURATED FLOW WILL NOT BE ADDED TO ANY LAYER-- SOME WATER MAY FLOW PAST
  LOWEST LAYER
 ***WARNING***NUZTOP IS 3 AND ALL LAYERS  IN ROW           40  AND COLUMN 
          76  ARE INACTIVE.
 UNSATURATED FLOW WILL NOT BE ADDED TO ANY LAYER-- SOME WATER MAY FLOW PAST
  LOWEST LAYER


UNSATURATED ZONE PACKAGE VOLUMETRIC BUDGET FOR  TIME STEP    11 STRESS PERIOD    2
  ------------------------------------------------------------------------------



     CUMULATIVE VOLUMES      L**3       RATES FOR THIS TIME STEP      L**3/T
     ------------------                 ------------------------

           IN:                                      IN:
           ---                                      ---
        INFILTRATION =       26039.6903          INFILTRATION =       0.0000E+00

          OUT:                                     OUT:
          ----                                     ----
              UZF ET =      251449.0328                UZF ET =       13319.4302
        UZF RECHARGE =      324919.1017          UZF RECHARGE =       24673.6974

            IN - OUT =     -550328.4442              IN - OUT =      -37993.1275

          STORAGE:                                 STORAGE:
          --------                                 --------
      STORAGE CHANGE =     -549247.2657        STORAGE CHANGE =      -37964.6597

 PERCENT DISCREPANCY IS DIFFERENCE BETWEEN IN-OUT MINUS CHANGE IN STORAGE
 DIVIDED BY THE AVERAGE OF IN AND OUT TIMES 100

 PERCENT DISCREPANCY =          -0.05     PERCENT DISCREPANCY =          -0.07






1
  VOLUMETRIC BUDGET FOR ENTIRE MODEL AT END OF TIME STEP   11, STRESS PERIOD   2
  ------------------------------------------------------------------------------

     CUMULATIVE VOLUMES      L**3       RATES FOR THIS TIME STEP      L**3/T
     ------------------                 ------------------------

           IN:                                      IN:
           ---                                      ---
             STORAGE     =        3332.7136               STORAGE     =         569.0389
       CONSTANT HEAD     =          17.5087         CONSTANT HEAD     =       1.2119E-02
      STREAM LEAKAGE     =       48281.1953        STREAM LEAKAGE     =        4132.9292
       LAKE  SEEPAGE     =        3477.3958         LAKE  SEEPAGE     =         238.4924
        UZF RECHARGE     =      324932.6875          UZF RECHARGE     =       24673.7109
               GW ET     =           0.0000                 GW ET     =           0.0000
     SURFACE LEAKAGE     =           0.0000       SURFACE LEAKAGE     =           0.0000

                TOTAL IN =      380041.5000                  TOTAL IN =       29614.1836

          OUT:                                     OUT:
          ----                                     ----
             STORAGE     =      158853.5625               STORAGE     =       12228.3877
       CONSTANT HEAD     =         780.5430         CONSTANT HEAD     =          70.1295
      STREAM LEAKAGE     =      138087.5000        STREAM LEAKAGE     =       12467.1064
       LAKE  SEEPAGE     =       31773.1758         LAKE  SEEPAGE     =        2668.7280
        UZF RECHARGE     =           0.0000          UZF RECHARGE     =           0.0000
               GW ET     =       47366.4609                 GW ET     =        1799.6318
     SURFACE LEAKAGE     =        3928.4436       SURFACE LEAKAGE     =         446.9198

               TOTAL OUT =      380789.6875                 TOTAL OUT =       29680.9023

                IN - OUT =        -748.1875                  IN - OUT =         -66.7188

     PERCENT DISCREPANCY =          -0.20         PERCENT DISCREPANCY =          -0.23






         TIME SUMMARY AT END OF TIME STEP   11 IN STRESS PERIOD    2
                    SECONDS     MINUTES      HOURS       DAYS        YEARS
                    -----------------------------------------------------------
   TIME STEP LENGTH  86400.      1440.0      24.000      1.0000     2.73785E-03
 STRESS PERIOD TIME 9.50400E+05  15840.      264.00      11.000     3.01164E-02
         TOTAL TIME 1.03680E+06  17280.      288.00      12.000     3.28542E-02
1
                                                   Max.-Head-Change                         Max.-Flux-Residual
  Residual-Control   Outer-Iter.   Inner-Iter.     Column Row Layer    Maximum-Head-Change  Column Row Layer    Maximum-Flux-Residual          L2-NORM 
          0                 1           5            20   37     2       0.2119820315E+01      55   35    2         0.3937037177E+03      0.6219656776E+03
          0                 2           4            48   20     2       0.1772187095E+01      55   35    2         0.5662268145E+02      0.1454679239E+03
          0                 3           3            49   21     2      -0.1368118460E+00      69   38    2        -0.1328006038E+02      0.3213580750E+02
          0                 4           3            49   21     2      -0.1257550725E-01      69   38    2        -0.3458645622E+01      0.8916608898E+01
          0                 5           2             3   59     2       0.1158044985E-02      64   38    2        -0.1024733665E+01      0.2964328045E+01
          0                 6           1             3   59     2       0.5062189016E-03      64   38    2        -0.3604754880E+00      0.1067740777E+01
          0                 7           1             4   59     2       0.2406031338E-03       3   59    2         0.1313515337E+00      0.4104885404E+00
          0                 8           1             4   59     2       0.1118336593E-03       3   59    2         0.5737998790E-01      0.1672956991E+00
          0                 9           1             4   59     2       0.5063167611E-04       3   59    2         0.2507861498E-01      0.7117603553E-01

    ------------------------------------------------
       NWT REQUIRED            9 OUTER ITERATIONS 
       AND A TOTAL OF         21 INNER ITERATIONS.
    ------------------------------------------------
                                                   Max.-Head-Change                         Max.-Flux-Residual
  Residual-Control   Outer-Iter.   Inner-Iter.     Column Row Layer    Maximum-Head-Change  Column Row Layer    Maximum-Flux-Residual          L2-NORM 
          0                 1           4            63   38     2       0.7184372525E+00      63   38    2         0.9275033656E+03      0.1210963601E+04
          0                 2           3            64   38     2       0.1886408255E+00      64   38    2         0.2446710373E+03      0.2800760459E+03
          0                 3           4            52   57     2      -0.1930002404E+00      70   31    2        -0.3222724626E+02      0.6777943589E+02
          0                 4           3            52   57     2      -0.1940971649E-01      66   24    2        -0.1290060621E+02      0.2165165011E+02
          0                 5           2            43   32     2      -0.3439393382E-02      66   24    2        -0.5819358652E+01      0.7608992269E+01
          0                 6           2            43   32     2      -0.1273283357E-02      66   24    2        -0.2487875910E+01      0.2824394011E+01
          0                 7           1            66   24     2      -0.4828513693E-03      66   24    2        -0.1044135930E+01      0.1106344695E+01
          0                 8           1            66   24     2      -0.2013148037E-03      66   24    2        -0.4352311082E+00      0.4481011304E+00
          0                 9           1            66   24     2      -0.8372279097E-04      66   24    2        -0.1809900204E+00      0.1842875947E+00

    ------------------------------------------------
       NWT REQUIRED            9 OUTER ITERATIONS 
       AND A TOTAL OF         21 INNER ITERATIONS.
    ------------------------------------------------
                                                   Max.-Head-Change                         Max.-Flux-Residual
  Residual-Control   Outer-Iter.   Inner-Iter.     Column Row Layer    Maximum-Head-Change  Column Row Layer    Maximum-Flux-Residual          L2-NORM 
          0                 1           3            20   37     2       0.1256438570E+00      66   24    2         0.1322798235E+02      0.2843030079E+02
          0                 2           3            52   57     2       0.1791388721E+00      70   31    2         0.2881552713E+02      0.5530910532E+02
          0                 3           4            52   57     2      -0.1930012337E+00      70   31    2        -0.3224878193E+02      0.6724900427E+02
          0                 4           3            52   57     2      -0.1941007376E-01      66   24    2        -0.1290288054E+02      0.2144472893E+02
          0                 5           2            43   32     2      -0.3446296401E-02      66   24    2        -0.5820296748E+01      0.7510012248E+01
          0                 6           2            43   32     2      -0.1274982902E-02      66   24    2        -0.2488257152E+01      0.2800479797E+01
          0                 7           1            66   24     2      -0.4829241034E-03      66   24    2        -0.1044291601E+01      0.1102162911E+01
          0                 8           1            66   24     2      -0.2013446012E-03      66   24    2        -0.4352946524E+00      0.4474396484E+00
          0                 9           1            66   24     2      -0.8373489172E-04      66   24    2        -0.1810158354E+00      0.1842287500E+00

    ------------------------------------------------
       NWT REQUIRED            9 OUTER ITERATIONS 
       AND A TOTAL OF         20 INNER ITERATIONS.
    ------------------------------------------------
                                                   Max.-Head-Change                         Max.-Flux-Residual
  Residual-Control   Outer-Iter.   Inner-Iter.     Column Row Layer    Maximum-Head-Change  Column Row Layer    Maximum-Flux-Residual          L2-NORM 
          0                 1           3            20   37     2       0.1256437675E+00      66   24    2         0.1322797181E+02      0.2726675749E+02
          0                 2           3            52   57     2       0.1791388725E+00      70   31    2         0.2881552940E+02      0.5514344886E+02
          0                 3           4            52   57     2      -0.1930012374E+00      70   31    2        -0.3224878093E+02      0.6724950677E+02
          0                 4           3            52   57     2      -0.1941014571E-01      66   24    2        -0.1290287974E+02      0.2144414602E+02
          0                 5           2            43   32     2      -0.4344304147E-02      66   24    2        -0.5820295275E+01      0.7512872949E+01
          0                 6           2            66   24     2      -0.1150723041E-02      66   24    2        -0.2488245795E+01      0.2791256017E+01
          0                 7           1            66   24     2      -0.4829374297E-03      66   24    2        -0.1044328032E+01      0.1099236397E+01
          0                 8           1            66   24     2      -0.2013425553E-03      66   24    2        -0.4353131973E+00      0.4467971613E+00
          0                 9           1            66   24     2      -0.8373967643E-04      66   24    2        -0.1810368592E+00      0.1840692827E+00

    ------------------------------------------------
       NWT REQUIRED            9 OUTER ITERATIONS 
       AND A TOTAL OF         20 INNER ITERATIONS.
    ------------------------------------------------

 OUTPUT CONTROL FOR STRESS PERIOD    2   TIME STEP   12
    PRINT BUDGET



 STREAM LISTING     PERIOD      2   STEP       12

 LAYER ROW COL. STREAM  RCH.   FLOW INTO    STREAM     FLOW OUT OF   OVRLND.    DIRECT     STREAM      STREAM      STREAM     STREAM  STREAMBED   FLOW TO   CHNG. UNSAT. 
                SEG.NO.  NO.   STRM. RCH.    LOSS       STRM. RCH.   RUNOFF     PRECIP       ET         HEAD        DEPTH      WIDTH  CONDCTNC.   WAT. TAB.

   2   18   62     1     1    0.0000E+00  2.6574E+00   0.0000E+00  2.657E+00  0.000E+00  0.000E+00  2.07300E+03  5.856E-06  3.000E+00  1.909E+03  0.000E+00  0.000E+00
   2   19   63     1     2    0.0000E+00 -5.6744E+01   5.9402E+01  2.657E+00  0.000E+00  0.000E+00  2.06300E+03  1.364E-03  3.000E+00  1.909E+03  0.000E+00  0.000E+00
   2   20   64     1     3    5.9402E+01 -8.2550E+01   1.4461E+02  2.657E+00  0.000E+00  0.000E+00  2.05400E+03  3.130E-03  3.000E+00  1.630E+03  0.000E+00  0.000E+00
   2   21   64     1     4    1.4461E+02 -8.4544E+01   2.3181E+02  2.657E+00  0.000E+00  0.000E+00  2.05101E+03  5.565E-03  3.000E+00  1.630E+03  0.000E+00  0.000E+00
   2   22   65     1     5    2.3181E+02 -1.2340E+01   2.4681E+02  2.657E+00  0.000E+00  0.000E+00  2.04801E+03  5.475E-03  3.000E+00  9.546E+02  0.000E+00  0.000E+00
   2   20   66     2     1    0.0000E+00 -4.4254E+01   4.7143E+01  2.889E+00  0.000E+00  0.000E+00  2.05300E+03  1.678E-03  3.000E+00  1.909E+03  0.000E+00  0.000E+00
   2   21   65     2     2    4.7143E+01  5.0032E+01   0.0000E+00  2.889E+00  0.000E+00  0.000E+00  2.05100E+03  5.869E-04  3.000E+00  1.630E+03  0.000E+00  0.000E+00
   2   22   65     2     3    0.0000E+00 -1.2006E+01   1.4895E+01  2.889E+00  0.000E+00  0.000E+00  2.04800E+03  6.153E-04  3.000E+00  6.750E+02  0.000E+00  0.000E+00
   2   22   65     3     1    2.6170E+02 -8.8625E+00   2.7281E+02  2.243E+00  0.000E+00  0.000E+00  2.04801E+03  5.273E-03  3.000E+00  6.750E+02  0.000E+00  0.000E+00
   2   23   65     3     2    2.7281E+02 -8.7608E+01   3.6266E+02  2.243E+00  0.000E+00  0.000E+00  2.04501E+03  9.381E-03  3.000E+00  1.630E+03  0.000E+00  0.000E+00
   2   24   66     3     3    3.6266E+02 -1.7914E+01   3.8282E+02  2.243E+00  0.000E+00  0.000E+00  2.04536E+03  3.597E-01  3.000E+00  1.909E+03  0.000E+00  0.000E+00
   2   25   67     3     4    3.8282E+02  2.2114E+01   3.6294E+02  2.243E+00  0.000E+00  0.000E+00  2.04501E+03  1.083E-02  3.000E+00  1.909E+03  0.000E+00  0.000E+00
   2   26   68     3     5    3.6294E+02  3.9415E+01   3.2577E+02  2.243E+00  0.000E+00  0.000E+00  2.04201E+03  9.034E-03  3.000E+00  1.630E+03  0.000E+00  0.000E+00
   2   27   68     3     6    3.2577E+02  9.7776E+01   2.3024E+02  2.243E+00  0.000E+00  0.000E+00  2.04101E+03  7.036E-03  3.000E+00  1.630E+03  1.035E+02 -5.707E+00
   2   28   69     3     7    2.3024E+02  9.7776E+01   1.3471E+02  2.243E+00  0.000E+00  0.000E+00  2.03600E+03  4.440E-03  3.000E+00  1.630E+03  9.400E+01  3.779E+00
   2   29   69     3     8    1.3471E+02  8.1000E+01   5.5948E+01  2.243E+00  0.000E+00  0.000E+00  2.02900E+03  2.776E-03  3.000E+00  1.350E+03  2.842E+01  5.258E+01
   2   30   69     3     9    5.5948E+01  5.8191E+01   0.0000E+00  2.243E+00  0.000E+00  0.000E+00  2.02300E+03  4.409E-04  3.000E+00  1.630E+03  0.000E+00  5.819E+01
   2   31   70     3    10    0.0000E+00  2.2426E+00   0.0000E+00  2.243E+00  0.000E+00  0.000E+00  2.01100E+03  5.206E-06  3.000E+00  1.630E+03  0.000E+00  0.000E+00
   2   32   70     3    11    0.0000E+00 -7.3527E+01   7.5770E+01  2.243E+00  0.000E+00  0.000E+00  2.00500E+03  1.844E-03  3.000E+00  1.350E+03  0.000E+00  0.000E+00
   2   33   70     3    12    7.5770E+01  7.8012E+01   0.0000E+00  2.243E+00  0.000E+00  0.000E+00  2.00300E+03  5.179E-04  3.000E+00  1.630E+03  7.820E+01 -1.856E-01
   2   34   69     3    13    0.0000E+00 -4.1138E+01   4.3381E+01  2.243E+00  0.000E+00  0.000E+00  1.98600E+03  9.393E-04  3.000E+00  1.630E+03  0.000E+00  0.000E+00
   2   35   69     3    14    4.3381E+01 -1.2689E+02   1.7251E+02  2.243E+00  0.000E+00  0.000E+00  1.97300E+03  2.666E-03  3.000E+00  1.350E+03  0.000E+00  0.000E+00
   2   36   69     3    15    1.7251E+02  1.2048E+01   1.6271E+02  2.243E+00  0.000E+00  0.000E+00  1.96700E+03  3.805E-03  3.000E+00  1.350E+03  0.000E+00  0.000E+00
   2   37   69     3    16    1.6271E+02  4.5459E+01   1.1949E+02  2.243E+00  0.000E+00  0.000E+00  1.95900E+03  3.432E-03  3.000E+00  1.350E+03  0.000E+00  0.000E+00
   2   38   69     3    17    1.1949E+02  1.2173E+02   0.0000E+00  2.243E+00  0.000E+00  0.000E+00  1.95300E+03  7.603E-04  3.000E+00  1.630E+03  0.000E+00  0.000E+00
   2   39   70     3    18    0.0000E+00 -3.9914E+01   4.2157E+01  2.243E+00  0.000E+00  0.000E+00  1.94600E+03  1.063E-03  3.000E+00  9.546E+02  0.000E+00  0.000E+00
   2   25   49     4     1    0.0000E+00 -1.4613E+02   1.4819E+02  2.050E+00  0.000E+00  0.000E+00  2.03500E+03  2.291E-03  3.000E+00  1.909E+03  0.000E+00  0.000E+00
   2   26   50     4     2    1.4819E+02 -1.0093E+02   2.5117E+02  2.050E+00  0.000E+00  0.000E+00  2.02600E+03  4.506E-03  3.000E+00  1.909E+03  0.000E+00  0.000E+00
   2   27   51     4     3    2.5117E+02 -9.0060E+01   3.4328E+02  2.050E+00  0.000E+00  0.000E+00  2.01901E+03  5.946E-03  3.000E+00  1.630E+03  0.000E+00  0.000E+00
   2   28   51     4     4    3.4328E+02 -8.1957E+01   4.2728E+02  2.050E+00  0.000E+00  0.000E+00  2.01401E+03  7.339E-03  3.000E+00  1.630E+03  0.000E+00  0.000E+00
   2   29   52     4     5    4.2728E+02 -7.6455E+01   5.0579E+02  2.050E+00  0.000E+00  0.000E+00  2.00901E+03  8.232E-03  3.000E+00  1.630E+03  0.000E+00  0.000E+00
   2   30   52     4     6    5.0579E+02 -6.0825E+01   5.6866E+02  2.050E+00  0.000E+00  0.000E+00  2.00401E+03  8.467E-03  3.000E+00  1.350E+03  0.000E+00  0.000E+00
   2   31   52     4     7    5.6866E+02 -8.3770E+01   6.5448E+02  2.050E+00  0.000E+00  0.000E+00  1.99901E+03  1.019E-02  3.000E+00  1.350E+03  0.000E+00  0.000E+00
   2   32   52     4     8    6.5448E+02 -3.7313E+00   6.6027E+02  2.050E+00  0.000E+00  0.000E+00  1.99701E+03  1.081E-02  3.000E+00  1.630E+03  0.000E+00  0.000E+00
   2   33   53     4     9    6.6027E+02 -2.6867E+00   6.6500E+02  2.050E+00  0.000E+00  0.000E+00  1.99101E+03  1.066E-02  3.000E+00  1.909E+03  0.000E+00  0.000E+00
   2   34   54     4    10    6.6500E+02  1.3814E+02   5.2891E+02  2.050E+00  0.000E+00  0.000E+00  1.98701E+03  1.033E-02  3.000E+00  1.909E+03  0.000E+00  0.000E+00
   2   35   55     4    11    5.2891E+02  4.9559E+02   3.5370E+01  2.050E+00  0.000E+00  0.000E+00  1.98201E+03  5.916E-03  3.000E+00  1.630E+03  0.000E+00  0.000E+00
   2   36   55     4    12    3.5370E+01 -1.0528E+02   1.4270E+02  2.050E+00  0.000E+00  0.000E+00  1.97600E+03  2.603E-03  3.000E+00  6.750E+02  0.000E+00  0.000E+00
   2   35   37     5     1    5.2308E+03  0.0000E+00   5.2309E+03  9.162E-02  0.000E+00  0.000E+00  2.05403E+03  2.596E-02  3.000E+00  0.000E+00  0.000E+00  0.000E+00
   2   34   38     5     2    5.2309E+03  0.0000E+00   5.2310E+03  9.162E-02  0.000E+00  0.000E+00  2.04003E+03  3.196E-02  3.000E+00  0.000E+00  0.000E+00  0.000E+00
   2   33   39     5     3    5.2310E+03  0.0000E+00   5.2310E+03  9.162E-02  0.000E+00  0.000E+00  2.03204E+03  3.799E-02  3.000E+00  0.000E+00  0.000E+00  0.000E+00
   2   32   40     5     4    5.2310E+03  0.0000E+00   5.2311E+03  9.162E-02  0.000E+00  0.000E+00  2.03004E+03  3.753E-02  3.000E+00  0.000E+00  0.000E+00  0.000E+00
   2   32   41     5     5    5.2311E+03  0.0000E+00   5.2312E+03  9.162E-02  0.000E+00  0.000E+00  2.02603E+03  3.141E-02  3.000E+00  0.000E+00  0.000E+00  0.000E+00
   2   32   42     5     6    5.2312E+03  0.0000E+00   5.2313E+03  9.162E-02  0.000E+00  0.000E+00  2.02204E+03  3.692E-02  3.000E+00  0.000E+00  0.000E+00  0.000E+00
   2   32   43     5     7    5.2313E+03  0.0000E+00   5.2314E+03  9.162E-02  0.000E+00  0.000E+00  2.02004E+03  4.092E-02  3.000E+00  0.000E+00  0.000E+00  0.000E+00
   2   33   44     5     8    5.2314E+03  0.0000E+00   5.2315E+03  9.162E-02  0.000E+00  0.000E+00  2.01904E+03  4.097E-02  3.000E+00  0.000E+00  0.000E+00  0.000E+00
   2   34   47     6     1    1.1288E+04  5.9130E+00   1.1283E+04  1.147E+00  0.000E+00  0.000E+00  2.00704E+03  3.950E-02  3.000E+00  6.750E+02  0.000E+00  0.000E+00
   2   34   48     6     2    1.1283E+04 -1.3319E+02   1.1417E+04  1.147E+00  0.000E+00  0.000E+00  2.00105E+03  5.164E-02  3.000E+00  1.630E+03  0.000E+00  0.000E+00
   2   35   49     6     3    1.1417E+04 -2.6841E+02   1.1687E+04  1.147E+00  0.000E+00  0.000E+00  1.99405E+03  5.487E-02  3.000E+00  1.630E+03  0.000E+00  0.000E+00
   2   35   50     6     4    1.1687E+04 -1.9917E+02   1.1887E+04  1.147E+00  0.000E+00  0.000E+00  1.99007E+03  6.649E-02  3.000E+00  1.350E+03  0.000E+00  0.000E+00
   2   35   51     6     5    1.1887E+04  1.3869E+01   1.1874E+04  1.147E+00  0.000E+00  0.000E+00  1.98907E+03  6.693E-02  3.000E+00  1.630E+03  0.000E+00  0.000E+00
   2   36   52     6     6    1.1874E+04 -1.2837E+02   1.2004E+04  1.147E+00  0.000E+00  0.000E+00  1.98406E+03  5.944E-02  3.000E+00  1.630E+03  0.000E+00  0.000E+00
   2   36   53     6     7    1.2004E+04 -2.6317E+02   1.2268E+04  1.147E+00  0.000E+00  0.000E+00  1.98008E+03  7.656E-02  3.000E+00  1.630E+03  0.000E+00  0.000E+00
   2   37   54     6     8    1.2268E+04 -5.1874E+01   1.2321E+04  1.147E+00  0.000E+00  0.000E+00  1.98008E+03  8.091E-02  3.000E+00  1.909E+03  0.000E+00  0.000E+00
   2   36   55     6     9    1.2321E+04 -9.2492E+01   1.2415E+04  1.147E+00  0.000E+00  0.000E+00  1.97606E+03  6.168E-02  3.000E+00  9.546E+02  0.000E+00  0.000E+00
   2   36   34     7     1    2.1904E+03 -5.3229E+01   2.2443E+03  7.039E-01  0.000E+00  0.000E+00  2.07701E+03  1.410E-02  3.000E+00  9.546E+02  0.000E+00  0.000E+00
   2   35   35     7     2    2.2443E+03 -1.1495E+02   2.3600E+03  7.039E-01  0.000E+00  0.000E+00  2.06702E+03  1.899E-02  3.000E+00  1.630E+03  0.000E+00  0.000E+00
   2   35   36     7     3    2.3600E+03  1.5386E+01   2.3453E+03  7.039E-01  0.000E+00  0.000E+00  2.06202E+03  1.898E-02  3.000E+00  1.350E+03  0.000E+00  0.000E+00
   2   35   37     7     4    2.3453E+03 -6.4795E+01   2.4108E+03  7.039E-01  0.000E+00  0.000E+00  2.05401E+03  1.458E-02  3.000E+00  6.750E+02  0.000E+00  0.000E+00
   2   52   49     8     1    0.0000E+00 -2.0236E+02   2.0408E+02  1.720E+00  0.000E+00  0.000E+00  2.12100E+03  2.860E-03  3.000E+00  1.909E+03  0.000E+00  0.000E+00
   2   51   48     8     2    2.0408E+02 -2.4242E+02   4.4822E+02  1.720E+00  0.000E+00  0.000E+00  2.11701E+03  9.167E-03  3.000E+00  1.909E+03  0.000E+00  0.000E+00
   2   50   47     8     3    4.4822E+02  1.8644E+02   2.6351E+02  1.720E+00  0.000E+00  0.000E+00  2.11701E+03  7.482E-03  3.000E+00  1.630E+03  0.000E+00  0.000E+00
   2   49   47     8     4    2.6351E+02 -2.6743E+02   5.3266E+02  1.720E+00  0.000E+00  0.000E+00  2.10901E+03  7.484E-03  3.000E+00  1.630E+03  0.000E+00  0.000E+00
   2   48   46     8     5    5.3266E+02  9.1857E+00   5.2519E+02  1.720E+00  0.000E+00  0.000E+00  2.10701E+03  1.168E-02  3.000E+00  1.630E+03  0.000E+00  0.000E+00
   2   47   46     8     6    5.2519E+02  1.6071E+02   3.6621E+02  1.720E+00  0.000E+00  0.000E+00  2.10501E+03  9.964E-03  3.000E+00  1.350E+03  0.000E+00  0.000E+00
   2   46   46     8     7    3.6621E+02  8.1000E+01   2.8693E+02  1.720E+00  0.000E+00  0.000E+00  2.10301E+03  7.321E-03  3.000E+00  1.350E+03  8.305E+01 -2.049E+00
   2   45   46     8     8    2.8693E+02  8.1000E+01   2.0765E+02  1.720E+00  0.000E+00  0.000E+00  2.09901E+03  5.033E-03  3.000E+00  1.350E+03  8.374E+01 -2.741E+00
   2   44   46     8     9    2.0765E+02  8.1000E+01   1.2836E+02  1.720E+00  0.000E+00  0.000E+00  2.09100E+03  3.477E-03  3.000E+00  1.350E+03  8.379E+01 -2.791E+00
   2   43   46     8    10    1.2836E+02  8.1000E+01   4.9085E+01  1.720E+00  0.000E+00  0.000E+00  2.08000E+03  2.371E-03  3.000E+00  1.350E+03  8.363E+01 -2.635E+00
   2   42   46     8    11    4.9085E+01  5.0805E+01   0.0000E+00  1.720E+00  0.000E+00  0.000E+00  2.07200E+03  3.937E-04  3.000E+00  1.630E+03  0.000E+00  5.080E+01
   2   41   45     8    12    0.0000E+00  1.7198E+00   0.0000E+00  1.720E+00  0.000E+00  0.000E+00  2.06000E+03  8.879E-06  3.000E+00  1.630E+03  0.000E+00  0.000E+00
   2   40   45     8    13    0.0000E+00  1.7198E+00   0.0000E+00  1.720E+00  0.000E+00  0.000E+00  2.05400E+03  9.049E-06  3.000E+00  1.350E+03  0.000E+00  1.720E+00
   2   39   45     8    14    0.0000E+00  1.7198E+00   0.0000E+00  1.720E+00  0.000E+00  0.000E+00  2.04600E+03  8.257E-06  3.000E+00  1.350E+03  0.000E+00  1.720E+00
   2   38   45     8    15    0.0000E+00  1.7198E+00   0.0000E+00  1.720E+00  0.000E+00  0.000E+00  2.03500E+03  8.257E-06  3.000E+00  1.350E+03  0.000E+00  1.720E+00
   2   37   45     8    16    0.0000E+00 -2.6916E+01   2.8636E+01  1.720E+00  0.000E+00  0.000E+00  2.02700E+03  9.202E-04  3.000E+00  1.630E+03  0.000E+00  0.000E+00
   2   36   46     8    17    2.8636E+01  3.0356E+01   0.0000E+00  1.720E+00  0.000E+00  0.000E+00  2.02100E+03  3.266E-04  3.000E+00  1.630E+03  0.000E+00  3.036E+01
   2   35   46     8    18    0.0000E+00  1.7198E+00   0.0000E+00  1.720E+00  0.000E+00  0.000E+00  2.01400E+03  9.575E-06  3.000E+00  1.630E+03  0.000E+00  0.000E+00
   2   34   47     8    19    0.0000E+00 -2.8558E+01   3.0278E+01  1.720E+00  0.000E+00  0.000E+00  2.00700E+03  8.286E-04  3.000E+00  9.546E+02  0.000E+00  0.000E+00
   2   37   26     9     1    0.0000E+00  1.7155E+00   0.0000E+00  1.715E+00  0.000E+00  0.000E+00  2.14700E+03  7.504E-06  3.000E+00  1.350E+03  0.000E+00  1.715E+00
   2   37   27     9     2    0.0000E+00 -4.4459E+01   4.6175E+01  1.715E+00  0.000E+00  0.000E+00  2.13400E+03  1.011E-03  3.000E+00  1.350E+03  0.000E+00  0.000E+00
   2   37   28     9     3    4.6175E+01 -1.3100E+02   1.7889E+02  1.715E+00  0.000E+00  0.000E+00  2.12500E+03  2.893E-03  3.000E+00  1.630E+03  0.000E+00  0.000E+00
   2   36   29     9     4    1.7889E+02  2.2722E+01   1.5789E+02  1.715E+00  0.000E+00  0.000E+00  2.11500E+03  3.744E-03  3.000E+00  1.630E+03  0.000E+00  0.000E+00
   2   36   30     9     5    1.5789E+02 -7.5544E+01   2.3515E+02  1.715E+00  0.000E+00  0.000E+00  2.10700E+03  3.950E-03  3.000E+00  1.350E+03  0.000E+00  0.000E+00
   2   36   31     9     6    2.3515E+02 -1.9957E+02   4.3643E+02  1.715E+00  0.000E+00  0.000E+00  2.09801E+03  5.547E-03  3.000E+00  1.350E+03  0.000E+00  0.000E+00
   2   36   32     9     7    4.3643E+02 -1.4857E+02   5.8672E+02  1.715E+00  0.000E+00  0.000E+00  2.09101E+03  7.433E-03  3.000E+00  1.350E+03  0.000E+00  0.000E+00
   2   36   33     9     8    5.8672E+02 -1.4541E+02   7.3385E+02  1.715E+00  0.000E+00  0.000E+00  2.08401E+03  8.662E-03  3.000E+00  1.350E+03  0.000E+00  0.000E+00
   2   36   34     9     9    7.3385E+02 -4.2298E+01   7.7786E+02  1.715E+00  0.000E+00  0.000E+00  2.07701E+03  7.199E-03  3.000E+00  6.750E+02  0.000E+00  0.000E+00
   2   58   37    10     1    0.0000E+00 -1.7687E+01   1.9674E+01  1.987E+00  0.000E+00  0.000E+00  2.15000E+03  1.011E-03  3.000E+00  1.350E+03  0.000E+00  0.000E+00
   2   57   37    10     2    1.9674E+01 -8.3751E+01   1.0541E+02  1.987E+00  0.000E+00  0.000E+00  2.14700E+03  2.744E-03  3.000E+00  1.630E+03  0.000E+00  0.000E+00
   2   56   38    10     3    1.0541E+02 -1.2796E+01   1.2020E+02  1.987E+00  0.000E+00  0.000E+00  2.14300E+03  3.625E-03  3.000E+00  1.630E+03  0.000E+00  0.000E+00
   2   55   38    10     4    1.2020E+02 -1.8174E+02   3.0392E+02  1.987E+00  0.000E+00  0.000E+00  2.13801E+03  5.183E-03  3.000E+00  1.350E+03  0.000E+00  0.000E+00
   2   54   38    10     5    3.0392E+02 -1.2399E+02   4.2990E+02  1.987E+00  0.000E+00  0.000E+00  2.13501E+03  7.851E-03  3.000E+00  1.350E+03  0.000E+00  0.000E+00
   2   53   38    10     6    4.2990E+02 -1.1849E+02   5.5038E+02  1.987E+00  0.000E+00  0.000E+00  2.13201E+03  9.341E-03  3.000E+00  1.350E+03  0.000E+00  0.000E+00
   2   52   38    10     7    5.5038E+02 -1.7667E+02   7.2903E+02  1.987E+00  0.000E+00  0.000E+00  2.12901E+03  1.310E-02  3.000E+00  1.630E+03  0.000E+00  0.000E+00
   2   51   39    10     8    7.2903E+02  2.4122E+00   7.2860E+02  1.987E+00  0.000E+00  0.000E+00  2.12801E+03  1.416E-02  3.000E+00  1.630E+03  0.000E+00  0.000E+00
   2   50   39    10     9    7.2860E+02 -9.2785E+01   8.2338E+02  1.987E+00  0.000E+00  0.000E+00  2.12501E+03  1.243E-02  3.000E+00  1.630E+03  0.000E+00  0.000E+00
   2   49   38    10    10    8.2338E+02 -1.6236E+02   9.8772E+02  1.987E+00  0.000E+00  0.000E+00  2.12101E+03  1.430E-02  3.000E+00  1.909E+03  0.000E+00  0.000E+00
   2   48   37    10    11    9.8772E+02  1.2167E+01   9.7754E+02  1.987E+00  0.000E+00  0.000E+00  2.11801E+03  1.278E-02  3.000E+00  1.909E+03  0.000E+00  0.000E+00
   2   47   36    10    12    9.7754E+02 -3.4682E+02   1.3263E+03  1.987E+00  0.000E+00  0.000E+00  2.10901E+03  1.340E-02  3.000E+00  1.630E+03  0.000E+00  0.000E+00
   2   46   36    10    13    1.3263E+03 -1.4128E+02   1.4696E+03  1.987E+00  0.000E+00  0.000E+00  2.10602E+03  1.673E-02  3.000E+00  1.350E+03  0.000E+00  0.000E+00
   2   45   36    10    14    1.4696E+03 -1.7599E+02   1.6476E+03  1.987E+00  0.000E+00  0.000E+00  2.10202E+03  1.785E-02  3.000E+00  1.350E+03  0.000E+00  0.000E+00
   2   44   36    10    15    1.6476E+03 -1.0594E+02   1.7555E+03  1.987E+00  0.000E+00  0.000E+00  2.09902E+03  1.971E-02  3.000E+00  1.350E+03  0.000E+00  0.000E+00
   2   43   36    10    16    1.7555E+03 -2.6651E+01   1.7842E+03  1.987E+00  0.000E+00  0.000E+00  2.09602E+03  1.891E-02  3.000E+00  1.630E+03  0.000E+00  0.000E+00
   2   42   37    10    17    1.7842E+03  1.7136E+02   1.6148E+03  1.987E+00  0.000E+00  0.000E+00  2.09002E+03  1.553E-02  3.000E+00  1.630E+03  0.000E+00  0.000E+00
   2   41   37    10    18    1.6148E+03 -2.6990E+02   1.8867E+03  1.987E+00  0.000E+00  0.000E+00  2.08001E+03  1.494E-02  3.000E+00  1.350E+03  0.000E+00  0.000E+00
   2   40   37    10    19    1.8867E+03 -3.3556E+02   2.2242E+03  1.987E+00  0.000E+00  0.000E+00  2.07402E+03  2.068E-02  3.000E+00  1.630E+03  0.000E+00  0.000E+00
   2   39   38    10    20    2.2242E+03 -3.8292E+01   2.2645E+03  1.987E+00  0.000E+00  0.000E+00  2.07102E+03  2.351E-02  3.000E+00  1.630E+03  0.000E+00  0.000E+00
   2   38   38    10    21    2.2645E+03  1.5215E+01   2.2513E+03  1.987E+00  0.000E+00  0.000E+00  2.06702E+03  2.120E-02  3.000E+00  1.630E+03  0.000E+00  0.000E+00
   2   37   37    10    22    2.2513E+03 -2.9596E+02   2.5492E+03  1.987E+00  0.000E+00  0.000E+00  2.06102E+03  2.199E-02  3.000E+00  1.630E+03  0.000E+00  0.000E+00
   2   36   37    10    23    2.5492E+03 -2.0425E+02   2.7554E+03  1.987E+00  0.000E+00  0.000E+00  2.05702E+03  2.456E-02  3.000E+00  1.350E+03  0.000E+00  0.000E+00
   2   35   37    10    24    2.7554E+03 -6.2522E+01   2.8200E+03  1.987E+00  0.000E+00  0.000E+00  2.05402E+03  1.795E-02  3.000E+00  6.750E+02  0.000E+00  0.000E+00
   2   36   55    11     1    1.2557E+04 -7.2745E+01   1.2631E+04  9.172E-01  0.000E+00  0.000E+00  1.97605E+03  5.080E-02  3.000E+00  6.750E+02  0.000E+00  0.000E+00
   2   36   56    11     2    1.2631E+04 -1.2491E+02   1.2757E+04  9.172E-01  0.000E+00  0.000E+00  1.97509E+03  8.574E-02  3.000E+00  1.630E+03  0.000E+00  0.000E+00
   2   37   57    11     3    1.2757E+04 -1.2783E+02   1.2886E+04  9.172E-01  0.000E+00  0.000E+00  1.97309E+03  8.625E-02  3.000E+00  1.630E+03  0.000E+00  0.000E+00
   2   37   58    11     4    1.2886E+04 -7.7603E+01   1.2964E+04  9.172E-01  0.000E+00  0.000E+00  1.97211E+03  1.139E-01  3.000E+00  1.350E+03  0.000E+00  0.000E+00
   2   37   59    11     5    1.2964E+04  3.1842E+01   1.2933E+04  9.172E-01  0.000E+00  0.000E+00  1.97209E+03  9.261E-02  3.000E+00  1.350E+03  0.000E+00  0.000E+00
   2   37   60    11     6    1.2933E+04 -4.9574E+01   1.2984E+04  9.172E-01  0.000E+00  0.000E+00  1.97007E+03  7.447E-02  3.000E+00  1.630E+03  0.000E+00  0.000E+00
   2   38   61    11     7    1.2984E+04 -1.5644E+02   1.3141E+04  9.172E-01  0.000E+00  0.000E+00  1.96707E+03  6.765E-02  3.000E+00  1.630E+03  0.000E+00  0.000E+00
   2   38   62    11     8    1.3141E+04 -1.0529E+02   1.3247E+04  9.172E-01  0.000E+00  0.000E+00  1.96306E+03  6.179E-02  3.000E+00  6.750E+02  0.000E+00  0.000E+00
   2   51   11    12     1    0.0000E+00 -3.9526E+02   3.9976E+02  4.501E+00  0.000E+00  0.000E+00  2.38700E+03  4.098E-03  3.000E+00  1.909E+03  0.000E+00  0.000E+00
   2   50   12    12     2    3.9976E+02 -6.3042E+01   4.6731E+02  4.501E+00  0.000E+00  0.000E+00  2.37501E+03  6.218E-03  3.000E+00  1.630E+03  0.000E+00  0.000E+00
   2   49   12    12     3    4.6731E+02 -3.9434E+02   8.6615E+02  4.501E+00  0.000E+00  0.000E+00  2.36501E+03  8.412E-03  3.000E+00  1.630E+03  0.000E+00  0.000E+00
   2   48   13    12     4    8.6615E+02 -1.8985E+02   1.0605E+03  4.501E+00  0.000E+00  0.000E+00  2.35601E+03  1.126E-02  3.000E+00  1.630E+03  0.000E+00  0.000E+00
   2   48   14    12     5    1.0605E+03 -1.7381E+02   1.2388E+03  4.501E+00  0.000E+00  0.000E+00  2.35001E+03  1.228E-02  3.000E+00  1.630E+03  0.000E+00  0.000E+00
   2   47   15    12     6    1.2388E+03 -1.7623E+02   1.4195E+03  4.501E+00  0.000E+00  0.000E+00  2.34001E+03  1.366E-02  3.000E+00  1.630E+03  0.000E+00  0.000E+00
   2   47   16    12     7    1.4195E+03 -1.4468E+02   1.5687E+03  4.501E+00  0.000E+00  0.000E+00  2.33502E+03  1.608E-02  3.000E+00  1.630E+03  0.000E+00  0.000E+00
   2   46   17    12     8    1.5687E+03  6.4440E+01   1.5088E+03  4.501E+00  0.000E+00  0.000E+00  2.32902E+03  1.523E-02  3.000E+00  1.630E+03  0.000E+00  0.000E+00
   2   46   18    12     9    1.5088E+03  1.4903E+02   1.3643E+03  4.501E+00  0.000E+00  0.000E+00  2.32101E+03  1.190E-02  3.000E+00  1.350E+03  0.000E+00  0.000E+00
   2   46   19    12    10    1.3643E+03 -4.5609E+02   1.8248E+03  4.501E+00  0.000E+00  0.000E+00  2.30601E+03  1.440E-02  3.000E+00  1.350E+03  0.000E+00  0.000E+00
   2   46   20    12    11    1.8248E+03  7.6112E+02   1.0682E+03  4.501E+00  0.000E+00  0.000E+00  2.30601E+03  1.145E-02  3.000E+00  1.630E+03  0.000E+00  0.000E+00
   2   45   21    12    12    1.0682E+03 -3.2167E+02   1.3944E+03  4.501E+00  0.000E+00  0.000E+00  2.27401E+03  9.216E-03  3.000E+00  1.909E+03  0.000E+00  0.000E+00
   2   44   22    12    13    1.3944E+03 -1.7694E+02   1.5758E+03  4.501E+00  0.000E+00  0.000E+00  2.25001E+03  1.116E-02  3.000E+00  1.909E+03  0.000E+00  0.000E+00
   2   43   23    12    14    1.5758E+03  1.4127E+02   1.4391E+03  4.501E+00  0.000E+00  0.000E+00  2.23101E+03  1.134E-02  3.000E+00  1.909E+03  0.000E+00  0.000E+00
   2   42   24    12    15    1.4391E+03 -8.2500E+01   1.5261E+03  4.501E+00  0.000E+00  0.000E+00  2.20801E+03  1.173E-02  3.000E+00  1.630E+03  0.000E+00  0.000E+00
   2   42   25    12    16    1.5261E+03 -2.1004E+01   1.5516E+03  4.501E+00  0.000E+00  0.000E+00  2.20001E+03  1.293E-02  3.000E+00  1.350E+03  0.000E+00  0.000E+00
   2   42   26    12    17    1.5516E+03  1.2017E+02   1.4359E+03  4.501E+00  0.000E+00  0.000E+00  2.18801E+03  1.125E-02  3.000E+00  1.350E+03  0.000E+00  0.000E+00
   2   42   27    12    18    1.4359E+03 -2.6591E+02   1.7063E+03  4.501E+00  0.000E+00  0.000E+00  2.17001E+03  1.171E-02  3.000E+00  1.350E+03  0.000E+00  0.000E+00
   2   42   28    12    19    1.7063E+03 -9.5927E+01   1.8068E+03  4.501E+00  0.000E+00  0.000E+00  2.15901E+03  1.339E-02  3.000E+00  1.630E+03  0.000E+00  0.000E+00
   2   41   29    12    20    1.8068E+03  1.4771E+02   1.6635E+03  4.501E+00  0.000E+00  0.000E+00  2.14201E+03  1.339E-02  3.000E+00  1.909E+03  0.000E+00  0.000E+00
   2   40   30    12    21    1.6635E+03  6.9956E+01   1.5981E+03  4.501E+00  0.000E+00  0.000E+00  2.12701E+03  1.358E-02  3.000E+00  1.909E+03  0.000E+00  0.000E+00
   2   39   31    12    22    1.5981E+03  1.1455E+02   1.4880E+03  4.501E+00  0.000E+00  0.000E+00  2.11501E+03  1.361E-02  3.000E+00  1.909E+03  1.152E+02 -6.028E-01
   2   38   32    12    23    1.4880E+03  1.1455E+02   1.3780E+03  4.501E+00  0.000E+00  0.000E+00  2.10301E+03  1.271E-02  3.000E+00  1.909E+03  1.176E+02 -3.065E+00
   2   37   33    12    24    1.3780E+03  3.1005E+01   1.3515E+03  4.501E+00  0.000E+00  0.000E+00  2.08901E+03  1.234E-02  3.000E+00  1.909E+03  0.000E+00  0.000E+00
   2   36   34    12    25    1.3515E+03 -5.6554E+01   1.4125E+03  4.501E+00  0.000E+00  0.000E+00  2.07701E+03  1.062E-02  3.000E+00  9.546E+02  0.000E+00  0.000E+00
   2   38   62    13     1    1.3454E+04 -1.1486E+02   1.3569E+04  8.923E-01  0.000E+00  0.000E+00  1.96305E+03  4.762E-02  3.000E+00  6.750E+02  0.000E+00  0.000E+00
   2   38   63    13     2    1.3569E+04  4.0969E+01   1.3529E+04  8.923E-01  0.000E+00  0.000E+00  1.96611E+03  3.106E+00  3.000E+00  1.350E+03  0.000E+00  0.000E+00
   2   38   64    13     3    1.3529E+04  7.3350E+01   1.3457E+04  8.923E-01  0.000E+00  0.000E+00  1.96610E+03  3.098E+00  3.000E+00  1.350E+03  0.000E+00  0.000E+00
   2   38   65    13     4    1.3457E+04 -3.8281E+01   1.3496E+04  8.923E-01  0.000E+00  0.000E+00  1.96308E+03  8.399E-02  3.000E+00  6.750E+02  0.000E+00  0.000E+00
   2   46   61    14     1    0.0000E+00  1.0357E+00   0.0000E+00  1.036E+00  0.000E+00  0.000E+00  2.01700E+03  6.675E-06  3.000E+00  1.350E+03  0.000E+00  0.000E+00
   2   45   61    14     2    0.0000E+00  1.0357E+00   0.0000E+00  1.036E+00  0.000E+00  0.000E+00  2.01000E+03  7.175E-06  3.000E+00  1.350E+03  5.313E-01  5.044E-01
   2   44   61    14     3    0.0000E+00  1.0357E+00   0.0000E+00  1.036E+00  0.000E+00  0.000E+00  2.00600E+03  7.175E-06  3.000E+00  1.350E+03  0.000E+00  1.036E+00
   2   43   61    14     4    0.0000E+00  1.0357E+00   0.0000E+00  1.036E+00  0.000E+00  0.000E+00  1.99900E+03  6.825E-06  3.000E+00  1.350E+03  0.000E+00  1.036E+00
   2   42   61    14     5    0.0000E+00  1.0357E+00   0.0000E+00  1.036E+00  0.000E+00  0.000E+00  1.99300E+03  6.675E-06  3.000E+00  1.350E+03  0.000E+00  1.036E+00
   2   41   61    14     6    0.0000E+00  1.0357E+00   0.0000E+00  1.036E+00  0.000E+00  0.000E+00  1.98500E+03  6.538E-06  3.000E+00  1.350E+03  0.000E+00  0.000E+00
   2   40   61    14     7    0.0000E+00  1.0357E+00   0.0000E+00  1.036E+00  0.000E+00  0.000E+00  1.97800E+03  6.991E-06  3.000E+00  1.350E+03  0.000E+00  0.000E+00
   2   39   61    14     8    0.0000E+00  1.0357E+00   0.0000E+00  1.036E+00  0.000E+00  0.000E+00  1.97300E+03  6.918E-06  3.000E+00  1.630E+03  0.000E+00  1.036E+00
   2   38   62    14     9    0.0000E+00 -2.0518E+02   2.0622E+02  1.036E+00  0.000E+00  0.000E+00  1.96300E+03  2.834E-03  3.000E+00  9.546E+02  0.000E+00  0.000E+00
   2   39   70    15     1    1.3849E+04  2.7583E+00   1.3847E+04  3.493E-01  0.000E+00  0.000E+00  1.94605E+03  4.696E-02  3.000E+00  6.750E+02  0.000E+00  0.000E+00
   2   40   75    16     1    1.5000E+04 -3.1365E+01   1.5032E+04  3.231E-01  0.000E+00  0.000E+00  1.93406E+03  6.246E-02  3.000E+00  6.750E+02  0.000E+00  0.000E+00
   2   40   76    16     2    1.5032E+04  0.0000E+00   1.5032E+04  3.231E-01  0.000E+00  0.000E+00  1.93309E+03  8.968E-02  3.000E+00  0.000E+00  0.000E+00  0.000E+00
   2   55   73    17     1    0.0000E+00  4.8589E-01   0.0000E+00  4.859E-01  0.000E+00  0.000E+00  2.04100E+03  7.304E-06  3.000E+00  1.350E+03  0.000E+00  0.000E+00
   2   54   73    17     2    0.0000E+00  4.8589E-01   0.0000E+00  4.859E-01  0.000E+00  0.000E+00  2.02900E+03  7.212E-06  3.000E+00  1.350E+03  0.000E+00  4.859E-01
   2   53   73    17     3    0.0000E+00  4.8589E-01   0.0000E+00  4.859E-01  0.000E+00  0.000E+00  2.01700E+03  7.735E-06  3.000E+00  1.350E+03  0.000E+00  4.859E-01
   2   52   73    17     4    0.0000E+00  4.8589E-01   0.0000E+00  4.859E-01  0.000E+00  0.000E+00  2.01000E+03  8.184E-06  3.000E+00  1.630E+03  0.000E+00  4.859E-01
   2   51   72    17     5    0.0000E+00  4.8589E-01   0.0000E+00  4.859E-01  0.000E+00  0.000E+00  1.99800E+03  8.462E-06  3.000E+00  1.630E+03  0.000E+00  4.859E-01
   2   50   72    17     6    0.0000E+00 -5.6185E+01   5.6671E+01  4.859E-01  0.000E+00  0.000E+00  1.97500E+03  1.372E-03  3.000E+00  1.350E+03  0.000E+00  0.000E+00
   2   49   72    17     7    5.6671E+01  0.0000E+00   5.7157E+01  4.859E-01  0.000E+00  0.000E+00  1.95600E+03  1.986E-03  3.000E+00  0.000E+00  0.000E+00  0.000E+00
   2   48   72    17     8    5.7157E+01  0.0000E+00   5.7642E+01  4.859E-01  0.000E+00  0.000E+00  1.95200E+03  1.998E-03  3.000E+00  0.000E+00  0.000E+00  0.000E+00
   2   47   72    17     9    5.7642E+01  0.0000E+00   5.8128E+01  4.859E-01  0.000E+00  0.000E+00  1.95000E+03  2.058E-03  3.000E+00  0.000E+00  0.000E+00  0.000E+00
   2   46   72    17    10    5.8128E+01  0.0000E+00   5.8614E+01  4.859E-01  0.000E+00  0.000E+00  1.94800E+03  2.118E-03  3.000E+00  0.000E+00  0.000E+00  0.000E+00
   2   45   72    17    11    5.8614E+01  0.0000E+00   5.9100E+01  4.859E-01  0.000E+00  0.000E+00  1.94400E+03  2.156E-03  3.000E+00  0.000E+00  0.000E+00  0.000E+00
   2   44   73    17    12    5.9100E+01  0.0000E+00   5.9586E+01  4.859E-01  0.000E+00  0.000E+00  1.94200E+03  2.202E-03  3.000E+00  0.000E+00  0.000E+00  0.000E+00
   2   43   73    17    13    5.9586E+01  0.0000E+00   6.0072E+01  4.859E-01  0.000E+00  0.000E+00  1.94200E+03  2.430E-03  3.000E+00  0.000E+00  0.000E+00  0.000E+00
   2   42   73    17    14    6.0072E+01  0.0000E+00   6.0558E+01  4.859E-01  0.000E+00  0.000E+00  1.94100E+03  2.494E-03  3.000E+00  0.000E+00  0.000E+00  0.000E+00
   2   34   45    18     1    1.1160E+04 -2.6217E+01   1.1187E+04  7.235E-01  0.000E+00  0.000E+00  2.01796E+03  5.917E-02  3.000E+00  1.630E+03  0.000E+00  0.000E+00
   2   34   46    18     2    1.1187E+04 -7.7321E+01   1.1265E+04  7.235E-01  0.000E+00  0.000E+00  2.01105E+03  5.414E-02  3.000E+00  1.350E+03  0.000E+00  0.000E+00
   2   34   47    18     3    1.1265E+04  8.0595E+00   1.1257E+04  7.235E-01  0.000E+00  0.000E+00  2.00704E+03  4.268E-02  3.000E+00  6.750E+02  0.000E+00  0.000E+00
   2   41   74    19     1    4.2759E+03 -2.2669E+02   4.5030E+03  4.577E-01  0.000E+00  0.000E+00  1.93803E+03  3.313E-02  3.000E+00  1.909E+03  0.000E+00  0.000E+00
   2   40   75    19     2    4.5030E+03 -7.1707E+01   4.5752E+03  4.577E-01  0.000E+00  0.000E+00  1.93403E+03  3.380E-02  3.000E+00  9.546E+02  0.000E+00  0.000E+00
   2   39   66    20     1    0.0000E+00  8.2471E-01   0.0000E+00  8.247E-01  0.000E+00  0.000E+00  1.96250E+03  5.152E-06  1.500E+00  8.148E+02  0.000E+00  8.247E-01
   2   39   67    20     2    0.0000E+00  8.2471E-01   0.0000E+00  8.247E-01  0.000E+00  0.000E+00  1.96225E+03  5.995E-06  1.500E+00  6.750E+02  0.000E+00  8.247E-01
   2   40   68    20     3    0.0000E+00  8.2471E-01   0.0000E+00  8.247E-01  0.000E+00  0.000E+00  1.96200E+03  6.652E-06  1.500E+00  9.546E+02  0.000E+00  8.247E-01
   2   41   69    20     4    0.0000E+00  8.2471E-01   0.0000E+00  8.247E-01  0.000E+00  0.000E+00  1.96175E+03  6.343E-06  1.500E+00  8.148E+02  0.000E+00  8.247E-01
   2   42   69    20     5    0.0000E+00  8.2471E-01   0.0000E+00  8.247E-01  0.000E+00  0.000E+00  1.96150E+03  6.343E-06  1.500E+00  8.148E+02  0.000E+00  8.247E-01
   2   43   70    20     6    0.0000E+00  8.2471E-01   0.0000E+00  8.247E-01  0.000E+00  0.000E+00  1.96125E+03  6.343E-06  1.500E+00  8.148E+02  0.000E+00  8.247E-01
   2   38   66    21     1    1.3496E+04 -7.8110E+01   1.3575E+04  6.303E-01  0.000E+00  0.000E+00  1.96007E+03  7.225E-02  3.000E+00  1.350E+03  0.000E+00  0.000E+00
   2   38   67    21     2    1.3575E+04  6.0064E+00   1.3569E+04  6.303E-01  0.000E+00  0.000E+00  1.95807E+03  6.922E-02  3.000E+00  1.630E+03  0.000E+00  0.000E+00
   2   39   68    21     3    1.3569E+04 -2.1113E+01   1.3591E+04  6.303E-01  0.000E+00  0.000E+00  1.95306E+03  6.222E-02  3.000E+00  1.630E+03  0.000E+00  0.000E+00
   2   39   69    21     4    1.3591E+04 -2.2379E+02   1.3815E+04  6.303E-01  0.000E+00  0.000E+00  1.94807E+03  6.580E-02  3.000E+00  1.350E+03  0.000E+00  0.000E+00
   2   39   70    21     5    1.3815E+04  9.0193E+00   1.3807E+04  6.303E-01  0.000E+00  0.000E+00  1.94606E+03  5.624E-02  3.000E+00  6.750E+02  0.000E+00  0.000E+00
   2   38   71    22     1    4.0000E+03 -5.8772E+01   4.0597E+03  9.393E-01  0.000E+00  0.000E+00  1.94556E+03  5.989E-02  3.000E+00  3.259E+02  0.000E+00  0.000E+00
   2   38   72    22     2    4.0597E+03 -4.2574E+01   4.1032E+03  9.393E-01  0.000E+00  0.000E+00  1.94506E+03  6.035E-02  3.000E+00  3.259E+02  0.000E+00  0.000E+00
   2   39   73    22     3    4.1032E+03  1.1136E+02   3.9928E+03  9.393E-01  0.000E+00  0.000E+00  1.94456E+03  6.005E-02  3.000E+00  3.259E+02  0.000E+00  0.000E+00
   2   39   74    22     4    3.9928E+03  8.1000E+01   3.9127E+03  9.393E-01  0.000E+00  0.000E+00  1.94406E+03  5.595E-02  3.000E+00  2.700E+02  8.384E+01 -2.842E+00
   2   39   75    22     5    3.9127E+03  8.1000E+01   3.8327E+03  9.393E-01  0.000E+00  0.000E+00  1.94356E+03  5.526E-02  3.000E+00  2.700E+02  8.381E+01 -2.812E+00
   2   39   76    22     6    3.8327E+03  0.0000E+00   3.8336E+03  9.393E-01  0.000E+00  0.000E+00  1.94305E+03  5.493E-02  3.000E+00  0.000E+00  0.000E+00  0.000E+00
   2   39   71    23     1    9.8468E+03 -1.9596E+02   1.0043E+04  6.303E-01  0.000E+00  0.000E+00  1.94206E+03  6.354E-02  3.000E+00  1.630E+03  0.000E+00  0.000E+00
   2   40   72    23     2    1.0043E+04 -8.1134E+01   1.0125E+04  6.303E-01  0.000E+00  0.000E+00  1.94107E+03  6.851E-02  3.000E+00  1.630E+03  0.000E+00  0.000E+00
   2   40   73    23     3    1.0125E+04 -1.8250E+02   1.0308E+04  6.303E-01  0.000E+00  0.000E+00  1.93806E+03  6.103E-02  3.000E+00  1.350E+03  0.000E+00  0.000E+00
   2   40   74    23     4    1.0308E+04 -8.1135E+01   1.0390E+04  6.303E-01  0.000E+00  0.000E+00  1.93607E+03  6.576E-02  3.000E+00  1.350E+03  0.000E+00  0.000E+00
   2   40   75    23     5    1.0390E+04 -3.4086E+01   1.0425E+04  6.303E-01  0.000E+00  0.000E+00  1.93406E+03  5.842E-02  3.000E+00  6.750E+02  0.000E+00  0.000E+00



1
  VOLUMETRIC BUDGET FOR UNSATURATED ZONE BENEATH STREAMS AT END OF TIME STEP    12 STRESS PERIOD   2
  ------------------------------------------------------------------------------------------------

    CUMULATIVE VOLUMES             L**3    RATES FOR THIS TIME STEP         L**3/T
    ------------------                     ------------------------


          STREAM LOSS =        11442.4512            STREAM LOSS =         1227.9624
    CHANGE IN STORAGE =         1552.6455      CHANGE IN STORAGE =          188.7001
       RECHARGE TO GW =         9889.8018         RECHARGE TO GW =         1039.2626

             TOTAL IN =        11442.4512               TOTAL IN =         1227.9624

            TOTAL OUT =        11442.4473              TOTAL OUT =         1227.9626

             IN - OUT =        3.9062E-03               IN - OUT =       -2.4414E-04

  PERCENT DISCREPANCY =            0.00      PERCENT DISCREPANCY =            -0.00



 ***WARNING***NUZTOP IS 3 AND ALL LAYERS  IN ROW           39  AND COLUMN 
          76  ARE INACTIVE.
 UNSATURATED FLOW WILL NOT BE ADDED TO ANY LAYER-- SOME WATER MAY FLOW PAST
  LOWEST LAYER
 ***WARNING***NUZTOP IS 3 AND ALL LAYERS  IN ROW           40  AND COLUMN 
          76  ARE INACTIVE.
 UNSATURATED FLOW WILL NOT BE ADDED TO ANY LAYER-- SOME WATER MAY FLOW PAST
  LOWEST LAYER


UNSATURATED ZONE PACKAGE VOLUMETRIC BUDGET FOR  TIME STEP    12 STRESS PERIOD    2
  ------------------------------------------------------------------------------



     CUMULATIVE VOLUMES      L**3       RATES FOR THIS TIME STEP      L**3/T
     ------------------                 ------------------------

           IN:                                      IN:
           ---                                      ---
        INFILTRATION =       26039.6903          INFILTRATION =       0.0000E+00

          OUT:                                     OUT:
          ----                                     ----
              UZF ET =      254880.4120                UZF ET =        3431.3792
        UZF RECHARGE =      349621.9216          UZF RECHARGE =       24702.8199

            IN - OUT =     -578462.6433              IN - OUT =      -28134.1991

          STORAGE:                                 STORAGE:
          --------                                 --------
      STORAGE CHANGE =     -577373.3739        STORAGE CHANGE =      -28126.1081

 PERCENT DISCREPANCY IS DIFFERENCE BETWEEN IN-OUT MINUS CHANGE IN STORAGE
 DIVIDED BY THE AVERAGE OF IN AND OUT TIMES 100

 PERCENT DISCREPANCY =          -0.05     PERCENT DISCREPANCY =          -0.03






1
  VOLUMETRIC BUDGET FOR ENTIRE MODEL AT END OF TIME STEP   12, STRESS PERIOD   2
  ------------------------------------------------------------------------------

     CUMULATIVE VOLUMES      L**3       RATES FOR THIS TIME STEP      L**3/T
     ------------------                 ------------------------

           IN:                                      IN:
           ---                                      ---
             STORAGE     =        3935.2173               STORAGE     =         602.5037
       CONSTANT HEAD     =          17.5128         CONSTANT HEAD     =       4.1714E-03
      STREAM LEAKAGE     =       52640.3555        STREAM LEAKAGE     =        4359.1592
       LAKE  SEEPAGE     =        3716.5869         LAKE  SEEPAGE     =         239.1912
        UZF RECHARGE     =      349635.5312          UZF RECHARGE     =       24702.8320
               GW ET     =           0.0000                 GW ET     =           0.0000
     SURFACE LEAKAGE     =           0.0000       SURFACE LEAKAGE     =           0.0000

                TOTAL IN =      409945.1875                  TOTAL IN =       29903.6914

          OUT:                                     OUT:
          ----                                     ----
             STORAGE     =      172220.5938               STORAGE     =       13367.0312
       CONSTANT HEAD     =         851.5874         CONSTANT HEAD     =          71.0444
      STREAM LEAKAGE     =      151000.4062        STREAM LEAKAGE     =       12912.9043
       LAKE  SEEPAGE     =       34441.7031         LAKE  SEEPAGE     =        2668.5286
        UZF RECHARGE     =           0.0000          UZF RECHARGE     =           0.0000
               GW ET     =       47826.9258                 GW ET     =         460.4638
     SURFACE LEAKAGE     =        4418.6079       SURFACE LEAKAGE     =         490.1642

               TOTAL OUT =      410759.8125                 TOTAL OUT =       29970.1367

                IN - OUT =        -814.6250                  IN - OUT =         -66.4453

     PERCENT DISCREPANCY =          -0.20         PERCENT DISCREPANCY =          -0.22






         TIME SUMMARY AT END OF TIME STEP   12 IN STRESS PERIOD    2
                    SECONDS     MINUTES      HOURS       DAYS        YEARS
                    -----------------------------------------------------------
   TIME STEP LENGTH  86400.      1440.0      24.000      1.0000     2.73785E-03
 STRESS PERIOD TIME 1.03680E+06  17280.      288.00      12.000     3.28542E-02
         TOTAL TIME 1.12320E+06  18720.      312.00      13.000     3.55921E-02
1
                                                   Max.-Head-Change                         Max.-Flux-Residual
  Residual-Control   Outer-Iter.   Inner-Iter.     Column Row Layer    Maximum-Head-Change  Column Row Layer    Maximum-Flux-Residual          L2-NORM 
          0                 1           5            26   34     2       0.1929968499E+01      55   35    2         0.3724236367E+03      0.6419510907E+03
          0                 2           4            23   37     2       0.1313538998E+01      63   38    2         0.4150202991E+02      0.1076028950E+03
          0                 3           3            23   37     2      -0.9569249036E-01      68   27    2         0.6823585856E+01      0.2430525393E+02
          0                 4           2            23   37     2      -0.8929022682E-02      64   38    2         0.2909093615E+01      0.8029275038E+01
          0                 5           2             3   59     2       0.1148794951E-02      63   38    2        -0.7286645465E+00      0.2583732494E+01
          0                 6           1             3   59     2       0.5022326108E-03      63   38    2        -0.3757433547E+00      0.1050983496E+01
          0                 7           1             3   59     2       0.2196160828E-03      63   38    2        -0.1541668553E+00      0.4432007425E+00
          0                 8           1             3   59     2       0.9607564379E-04      64   38    2        -0.7209957688E-01      0.1896148445E+00

    ------------------------------------------------
       NWT REQUIRED            8 OUTER ITERATIONS 
       AND A TOTAL OF         19 INNER ITERATIONS.
    ------------------------------------------------
                                                   Max.-Head-Change                         Max.-Flux-Residual
  Residual-Control   Outer-Iter.   Inner-Iter.     Column Row Layer    Maximum-Head-Change  Column Row Layer    Maximum-Flux-Residual          L2-NORM 
          0                 1           4            63   38     2      -0.5177521994E+00      63   38    2        -0.6686572548E+03      0.8681567750E+03
          0                 2           3            64   38     2      -0.1411346242E+00      64   38    2        -0.1831668757E+03      0.2046660029E+03
          0                 3           2            64   38     2      -0.1689036792E-01      64   38    2        -0.2189677542E+02      0.2973385219E+02
          0                 4           2            69   30     2      -0.2657739890E-02      69   30    2        -0.3822042516E+01      0.6297983387E+01
          0                 5           2            69   30     2      -0.1597454246E-02      69   30    2        -0.2296507916E+01      0.2782244357E+01
          0                 6           1            69   30     2      -0.8402021830E-03      69   30    2        -0.1207616624E+01      0.1358746067E+01
          0                 7           1            69   30     2      -0.4089906357E-03      69   30    2        -0.5876454643E+00      0.6408102129E+00
          0                 8           1            69   30     2      -0.1898224795E-03      69   30    2        -0.2726686012E+00      0.2924389146E+00
          0                 9           1            69   30     2      -0.8540627730E-04      69   30    2        -0.1226525235E+00      0.1302663312E+00

    ------------------------------------------------
       NWT REQUIRED            9 OUTER ITERATIONS 
       AND A TOTAL OF         17 INNER ITERATIONS.
    ------------------------------------------------
                                                   Max.-Head-Change                         Max.-Flux-Residual
  Residual-Control   Outer-Iter.   Inner-Iter.     Column Row Layer    Maximum-Head-Change  Column Row Layer    Maximum-Flux-Residual          L2-NORM 
          0                 1           2            69   38     2       0.3654901724E-02      69   38    2         0.4322296661E+01      0.9630108246E+01
          0                 2           2            69   30     2       0.5941808510E-02      69   30    2         0.6991039967E+01      0.1384666249E+02
          0                 3           2            63   38     2      -0.6715792910E-02      63   38    2        -0.1061743146E+02      0.1914481012E+02
          0                 4           2            69   30     2      -0.2658775998E-02      69   30    2        -0.3823564963E+01      0.7251202590E+01
          0                 5           2            69   30     2      -0.1597888514E-02      69   30    2        -0.2297150894E+01      0.3094536394E+01
          0                 6           1            69   30     2      -0.8403801128E-03      69   30    2        -0.1207873050E+01      0.1407683954E+01
          0                 7           1            69   30     2      -0.4090603905E-03      69   30    2        -0.5877628455E+00      0.6471821252E+00
          0                 8           1            69   30     2      -0.1898475644E-03      69   30    2        -0.2727186985E+00      0.2930706808E+00
          0                 9           1            69   30     2      -0.8542966797E-04      69   30    2        -0.1226946678E+00      0.1302894331E+00

    ------------------------------------------------
       NWT REQUIRED            9 OUTER ITERATIONS 
       AND A TOTAL OF         14 INNER ITERATIONS.
    ------------------------------------------------
                                                   Max.-Head-Change                         Max.-Flux-Residual
  Residual-Control   Outer-Iter.   Inner-Iter.     Column Row Layer    Maximum-Head-Change  Column Row Layer    Maximum-Flux-Residual          L2-NORM 
          0                 1           2            63   38     2       0.4151514443E-02      63   38    2         0.5358949641E+01      0.1064876453E+02
          0                 2           2            69   30     2       0.5941785487E-02      69   30    2         0.6991003297E+01      0.1408775677E+02
          0                 3           2            63   38     2      -0.6713188457E-02      63   38    2        -0.1061395192E+02      0.1912911517E+02
          0                 4           2            69   30     2      -0.2658775531E-02      69   30    2        -0.3823564535E+01      0.7259410252E+01
          0                 5           2            69   30     2      -0.1597888244E-02      69   30    2        -0.2297150323E+01      0.3093846465E+01
          0                 6           1            69   30     2      -0.8403706180E-03      69   30    2        -0.1207856400E+01      0.1406568198E+01
          0                 7           1            69   30     2      -0.4090555760E-03      69   30    2        -0.5877554110E+00      0.6466847854E+00
          0                 8           1            69   30     2      -0.1898457567E-03      69   30    2        -0.2727159242E+00      0.2930109352E+00
          0                 9           1            69   30     2      -0.8542898772E-04      69   30    2        -0.1226936409E+00      0.1302641729E+00

    ------------------------------------------------
       NWT REQUIRED            9 OUTER ITERATIONS 
       AND A TOTAL OF         14 INNER ITERATIONS.
    ------------------------------------------------

 OUTPUT CONTROL FOR STRESS PERIOD    2   TIME STEP   13
    PRINT BUDGET



 STREAM LISTING     PERIOD      2   STEP       13

 LAYER ROW COL. STREAM  RCH.   FLOW INTO    STREAM     FLOW OUT OF   OVRLND.    DIRECT     STREAM      STREAM      STREAM     STREAM  STREAMBED   FLOW TO   CHNG. UNSAT. 
                SEG.NO.  NO.   STRM. RCH.    LOSS       STRM. RCH.   RUNOFF     PRECIP       ET         HEAD        DEPTH      WIDTH  CONDCTNC.   WAT. TAB.

   2   18   62     1     1    0.0000E+00  8.3385E-01   0.0000E+00  8.338E-01  0.000E+00  0.000E+00  2.07300E+03  5.843E-06  3.000E+00  1.909E+03  0.000E+00  0.000E+00
   2   19   63     1     2    0.0000E+00 -5.8589E+01   5.9422E+01  8.338E-01  0.000E+00  0.000E+00  2.06300E+03  1.364E-03  3.000E+00  1.909E+03  0.000E+00  0.000E+00
   2   20   64     1     3    5.9422E+01 -8.4359E+01   1.4462E+02  8.338E-01  0.000E+00  0.000E+00  2.05400E+03  3.131E-03  3.000E+00  1.630E+03  0.000E+00  0.000E+00
   2   21   64     1     4    1.4462E+02 -8.6724E+01   2.3217E+02  8.338E-01  0.000E+00  0.000E+00  2.05101E+03  5.569E-03  3.000E+00  1.630E+03  0.000E+00  0.000E+00
   2   22   65     1     5    2.3217E+02 -1.3252E+01   2.4626E+02  8.338E-01  0.000E+00  0.000E+00  2.04801E+03  5.474E-03  3.000E+00  9.546E+02  0.000E+00  0.000E+00
   2   20   66     2     1    0.0000E+00 -4.6593E+01   4.7335E+01  7.416E-01  0.000E+00  0.000E+00  2.05300E+03  1.682E-03  3.000E+00  1.909E+03  0.000E+00  0.000E+00
   2   21   65     2     2    4.7335E+01  4.8076E+01   0.0000E+00  7.416E-01  0.000E+00  0.000E+00  2.05100E+03  5.805E-04  3.000E+00  1.630E+03  0.000E+00  0.000E+00
   2   22   65     2     3    0.0000E+00 -1.2676E+01   1.3417E+01  7.416E-01  0.000E+00  0.000E+00  2.04800E+03  5.779E-04  3.000E+00  6.750E+02  0.000E+00  0.000E+00
   2   22   65     3     1    2.5968E+02 -9.5258E+00   2.7006E+02  8.610E-01  0.000E+00  0.000E+00  2.04801E+03  5.244E-03  3.000E+00  6.750E+02  0.000E+00  0.000E+00
   2   23   65     3     2    2.7006E+02 -9.0754E+01   3.6168E+02  8.610E-01  0.000E+00  0.000E+00  2.04501E+03  9.348E-03  3.000E+00  1.630E+03  0.000E+00  0.000E+00
   2   24   66     3     3    3.6168E+02 -2.1232E+01   3.8377E+02  8.610E-01  0.000E+00  0.000E+00  2.04536E+03  3.597E-01  3.000E+00  1.909E+03  0.000E+00  0.000E+00
   2   25   67     3     4    3.8377E+02  1.7867E+01   3.6677E+02  8.610E-01  0.000E+00  0.000E+00  2.04501E+03  1.087E-02  3.000E+00  1.909E+03  0.000E+00  0.000E+00
   2   26   68     3     5    3.6677E+02  3.2692E+01   3.3493E+02  8.610E-01  0.000E+00  0.000E+00  2.04201E+03  9.134E-03  3.000E+00  1.630E+03  0.000E+00  0.000E+00
   2   27   68     3     6    3.3493E+02  9.7776E+01   2.3802E+02  8.610E-01  0.000E+00  0.000E+00  2.04101E+03  7.162E-03  3.000E+00  1.630E+03  1.033E+02 -5.475E+00
   2   28   69     3     7    2.3802E+02  9.7776E+01   1.4111E+02  8.610E-01  0.000E+00  0.000E+00  2.03600E+03  4.541E-03  3.000E+00  1.630E+03  1.027E+02 -4.911E+00
   2   29   69     3     8    1.4111E+02  8.1000E+01   6.0966E+01  8.610E-01  0.000E+00  0.000E+00  2.02900E+03  2.872E-03  3.000E+00  1.350E+03  8.453E+01 -3.533E+00
   2   30   69     3     9    6.0966E+01  6.1827E+01   0.0000E+00  8.610E-01  0.000E+00  0.000E+00  2.02300E+03  4.601E-04  3.000E+00  1.630E+03  1.861E+01  4.322E+01
   2   31   70     3    10    0.0000E+00  8.6105E-01   0.0000E+00  8.610E-01  0.000E+00  0.000E+00  2.01100E+03  5.863E-06  3.000E+00  1.630E+03  0.000E+00  0.000E+00
   2   32   70     3    11    0.0000E+00 -7.6854E+01   7.7715E+01  8.610E-01  0.000E+00  0.000E+00  2.00500E+03  1.872E-03  3.000E+00  1.350E+03  0.000E+00  0.000E+00
   2   33   70     3    12    7.7715E+01  7.8576E+01   0.0000E+00  8.610E-01  0.000E+00  0.000E+00  2.00300E+03  5.229E-04  3.000E+00  1.630E+03  8.080E+01 -2.228E+00
   2   34   69     3    13    0.0000E+00 -4.3143E+01   4.4004E+01  8.610E-01  0.000E+00  0.000E+00  1.98600E+03  9.473E-04  3.000E+00  1.630E+03  0.000E+00  0.000E+00
   2   35   69     3    14    4.4004E+01 -1.2860E+02   1.7346E+02  8.610E-01  0.000E+00  0.000E+00  1.97300E+03  2.678E-03  3.000E+00  1.350E+03  0.000E+00  0.000E+00
   2   36   69     3    15    1.7346E+02  9.4626E+00   1.6486E+02  8.610E-01  0.000E+00  0.000E+00  1.96700E+03  3.826E-03  3.000E+00  1.350E+03  0.000E+00  0.000E+00
   2   37   69     3    16    1.6486E+02  3.2609E+01   1.3311E+02  8.610E-01  0.000E+00  0.000E+00  1.95900E+03  3.546E-03  3.000E+00  1.350E+03  0.000E+00  0.000E+00
   2   38   69     3    17    1.3311E+02  1.3397E+02   0.0000E+00  8.610E-01  0.000E+00  0.000E+00  1.95300E+03  8.082E-04  3.000E+00  1.630E+03  0.000E+00  0.000E+00
   2   39   70     3    18    0.0000E+00 -3.4535E+01   3.5396E+01  8.610E-01  0.000E+00  0.000E+00  1.94600E+03  9.568E-04  3.000E+00  9.546E+02  0.000E+00  0.000E+00
   2   25   49     4     1    0.0000E+00 -1.4929E+02   1.5019E+02  8.933E-01  0.000E+00  0.000E+00  2.03500E+03  2.309E-03  3.000E+00  1.909E+03  0.000E+00  0.000E+00
   2   26   50     4     2    1.5019E+02 -1.0278E+02   2.5386E+02  8.933E-01  0.000E+00  0.000E+00  2.02600E+03  4.537E-03  3.000E+00  1.909E+03  0.000E+00  0.000E+00
   2   27   51     4     3    2.5386E+02 -9.1962E+01   3.4672E+02  8.933E-01  0.000E+00  0.000E+00  2.01901E+03  5.983E-03  3.000E+00  1.630E+03  0.000E+00  0.000E+00
   2   28   51     4     4    3.4672E+02 -8.3447E+01   4.3106E+02  8.933E-01  0.000E+00  0.000E+00  2.01401E+03  7.380E-03  3.000E+00  1.630E+03  0.000E+00  0.000E+00
   2   29   52     4     5    4.3106E+02 -7.8035E+01   5.0999E+02  8.933E-01  0.000E+00  0.000E+00  2.00901E+03  8.274E-03  3.000E+00  1.630E+03  0.000E+00  0.000E+00
   2   30   52     4     6    5.0999E+02 -6.2415E+01   5.7330E+02  8.933E-01  0.000E+00  0.000E+00  2.00401E+03  8.509E-03  3.000E+00  1.350E+03  0.000E+00  0.000E+00
   2   31   52     4     7    5.7330E+02 -8.5366E+01   6.5956E+02  8.933E-01  0.000E+00  0.000E+00  1.99901E+03  1.023E-02  3.000E+00  1.350E+03  0.000E+00  0.000E+00
   2   32   52     4     8    6.5956E+02 -5.2662E+00   6.6572E+02  8.933E-01  0.000E+00  0.000E+00  1.99701E+03  1.086E-02  3.000E+00  1.630E+03  0.000E+00  0.000E+00
   2   33   53     4     9    6.6572E+02 -4.5046E+00   6.7111E+02  8.933E-01  0.000E+00  0.000E+00  1.99101E+03  1.071E-02  3.000E+00  1.909E+03  0.000E+00  0.000E+00
   2   34   54     4    10    6.7111E+02  1.3343E+02   5.3858E+02  8.933E-01  0.000E+00  0.000E+00  1.98701E+03  1.041E-02  3.000E+00  1.909E+03  0.000E+00  0.000E+00
   2   35   55     4    11    5.3858E+02  2.8340E+02   2.5607E+02  8.933E-01  0.000E+00  0.000E+00  1.98201E+03  7.265E-03  3.000E+00  1.630E+03  0.000E+00  0.000E+00
   2   36   55     4    12    2.5607E+02 -9.9004E+01   3.5597E+02  8.933E-01  0.000E+00  0.000E+00  1.97601E+03  5.461E-03  3.000E+00  6.750E+02  0.000E+00  0.000E+00
   2   35   37     5     1    5.2279E+03  0.0000E+00   5.2279E+03  7.019E-02  0.000E+00  0.000E+00  2.05403E+03  2.596E-02  3.000E+00  0.000E+00  0.000E+00  0.000E+00
   2   34   38     5     2    5.2279E+03  0.0000E+00   5.2280E+03  7.019E-02  0.000E+00  0.000E+00  2.04003E+03  3.197E-02  3.000E+00  0.000E+00  0.000E+00  0.000E+00
   2   33   39     5     3    5.2280E+03  0.0000E+00   5.2281E+03  7.019E-02  0.000E+00  0.000E+00  2.03204E+03  3.798E-02  3.000E+00  0.000E+00  0.000E+00  0.000E+00
   2   32   40     5     4    5.2281E+03  0.0000E+00   5.2282E+03  7.019E-02  0.000E+00  0.000E+00  2.03004E+03  3.752E-02  3.000E+00  0.000E+00  0.000E+00  0.000E+00
   2   32   41     5     5    5.2282E+03  0.0000E+00   5.2282E+03  7.019E-02  0.000E+00  0.000E+00  2.02603E+03  3.140E-02  3.000E+00  0.000E+00  0.000E+00  0.000E+00
   2   32   42     5     6    5.2282E+03  0.0000E+00   5.2283E+03  7.019E-02  0.000E+00  0.000E+00  2.02204E+03  3.691E-02  3.000E+00  0.000E+00  0.000E+00  0.000E+00
   2   32   43     5     7    5.2283E+03  0.0000E+00   5.2284E+03  7.019E-02  0.000E+00  0.000E+00  2.02004E+03  4.090E-02  3.000E+00  0.000E+00  0.000E+00  0.000E+00
   2   33   44     5     8    5.2284E+03  0.0000E+00   5.2284E+03  7.019E-02  0.000E+00  0.000E+00  2.01904E+03  4.095E-02  3.000E+00  0.000E+00  0.000E+00  0.000E+00
   2   34   47     6     1    6.4482E+03  2.5556E+00   6.4464E+03  7.550E-01  0.000E+00  0.000E+00  2.00703E+03  2.823E-02  3.000E+00  6.750E+02  0.000E+00  0.000E+00
   2   34   48     6     2    6.4464E+03 -1.3600E+02   6.5831E+03  7.550E-01  0.000E+00  0.000E+00  2.00104E+03  3.701E-02  3.000E+00  1.630E+03  0.000E+00  0.000E+00
   2   35   49     6     3    6.5831E+03 -2.7155E+02   6.8554E+03  7.550E-01  0.000E+00  0.000E+00  1.99404E+03  3.964E-02  3.000E+00  1.630E+03  0.000E+00  0.000E+00
   2   35   50     6     4    6.8554E+03 -2.0221E+02   7.0584E+03  7.550E-01  0.000E+00  0.000E+00  1.99005E+03  4.846E-02  3.000E+00  1.350E+03  0.000E+00  0.000E+00
   2   35   51     6     5    7.0584E+03  1.0536E+01   7.0486E+03  7.550E-01  0.000E+00  0.000E+00  1.98905E+03  4.895E-02  3.000E+00  1.630E+03  0.000E+00  0.000E+00
   2   36   52     6     6    7.0486E+03 -1.3189E+02   7.1812E+03  7.550E-01  0.000E+00  0.000E+00  1.98404E+03  4.357E-02  3.000E+00  1.630E+03  0.000E+00  0.000E+00
   2   36   53     6     7    7.1812E+03 -2.6718E+02   7.4492E+03  7.550E-01  0.000E+00  0.000E+00  1.98006E+03  5.650E-02  3.000E+00  1.630E+03  0.000E+00  0.000E+00
   2   37   54     6     8    7.4492E+03 -5.6490E+01   7.5064E+03  7.550E-01  0.000E+00  0.000E+00  1.98006E+03  6.004E-02  3.000E+00  1.909E+03  0.000E+00  0.000E+00
   2   36   55     6     9    7.5064E+03 -1.0141E+02   7.6086E+03  7.550E-01  0.000E+00  0.000E+00  1.97605E+03  4.590E-02  3.000E+00  9.546E+02  0.000E+00  0.000E+00
   2   36   34     7     1    2.1459E+03 -5.3892E+01   2.2004E+03  5.568E-01  0.000E+00  0.000E+00  2.07701E+03  1.393E-02  3.000E+00  9.546E+02  0.000E+00  0.000E+00
   2   35   35     7     2    2.2004E+03 -1.1659E+02   2.3175E+03  5.568E-01  0.000E+00  0.000E+00  2.06702E+03  1.878E-02  3.000E+00  1.630E+03  0.000E+00  0.000E+00
   2   35   36     7     3    2.3175E+03  1.3692E+01   2.3044E+03  5.568E-01  0.000E+00  0.000E+00  2.06202E+03  1.878E-02  3.000E+00  1.350E+03  0.000E+00  0.000E+00
   2   35   37     7     4    2.3044E+03 -6.5571E+01   2.3705E+03  5.568E-01  0.000E+00  0.000E+00  2.05401E+03  1.443E-02  3.000E+00  6.750E+02  0.000E+00  0.000E+00
   2   52   49     8     1    0.0000E+00 -2.0420E+02   2.0506E+02  8.647E-01  0.000E+00  0.000E+00  2.12100E+03  2.869E-03  3.000E+00  1.909E+03  0.000E+00  0.000E+00
   2   51   48     8     2    2.0506E+02 -2.4369E+02   4.4962E+02  8.647E-01  0.000E+00  0.000E+00  2.11701E+03  9.187E-03  3.000E+00  1.909E+03  0.000E+00  0.000E+00
   2   50   47     8     3    4.4962E+02  1.8490E+02   2.6558E+02  8.647E-01  0.000E+00  0.000E+00  2.11701E+03  7.504E-03  3.000E+00  1.630E+03  0.000E+00  0.000E+00
   2   49   47     8     4    2.6558E+02 -2.6878E+02   5.3523E+02  8.647E-01  0.000E+00  0.000E+00  2.10901E+03  7.510E-03  3.000E+00  1.630E+03  0.000E+00  0.000E+00
   2   48   46     8     5    5.3523E+02  7.8507E+00   5.2824E+02  8.647E-01  0.000E+00  0.000E+00  2.10701E+03  1.172E-02  3.000E+00  1.630E+03  0.000E+00  0.000E+00
   2   47   46     8     6    5.2824E+02  1.5754E+02   3.7157E+02  8.647E-01  0.000E+00  0.000E+00  2.10501E+03  1.002E-02  3.000E+00  1.350E+03  0.000E+00  0.000E+00
   2   46   46     8     7    3.7157E+02  8.1000E+01   2.9143E+02  8.647E-01  0.000E+00  0.000E+00  2.10301E+03  7.387E-03  3.000E+00  1.350E+03  8.295E+01 -1.952E+00
   2   45   46     8     8    2.9143E+02  8.1000E+01   2.1130E+02  8.647E-01  0.000E+00  0.000E+00  2.09901E+03  5.082E-03  3.000E+00  1.350E+03  8.364E+01 -2.644E+00
   2   44   46     8     9    2.1130E+02  8.1000E+01   1.3116E+02  8.647E-01  0.000E+00  0.000E+00  2.09100E+03  3.517E-03  3.000E+00  1.350E+03  8.370E+01 -2.704E+00
   2   43   46     8    10    1.3116E+02  8.1000E+01   5.1028E+01  8.647E-01  0.000E+00  0.000E+00  2.08000E+03  2.408E-03  3.000E+00  1.350E+03  8.350E+01 -2.504E+00
   2   42   46     8    11    5.1028E+01  5.1893E+01   0.0000E+00  8.647E-01  0.000E+00  0.000E+00  2.07200E+03  4.008E-04  3.000E+00  1.630E+03  0.000E+00  5.189E+01
   2   41   45     8    12    0.0000E+00  8.6467E-01   0.0000E+00  8.647E-01  0.000E+00  0.000E+00  2.06000E+03  5.878E-06  3.000E+00  1.630E+03  0.000E+00  0.000E+00
   2   40   45     8    13    0.0000E+00  8.6467E-01   0.0000E+00  8.647E-01  0.000E+00  0.000E+00  2.05400E+03  5.990E-06  3.000E+00  1.350E+03  0.000E+00  8.646E-01
   2   39   45     8    14    0.0000E+00  8.6467E-01   0.0000E+00  8.647E-01  0.000E+00  0.000E+00  2.04600E+03  5.465E-06  3.000E+00  1.350E+03  0.000E+00  8.646E-01
   2   38   45     8    15    0.0000E+00  8.6467E-01   0.0000E+00  8.647E-01  0.000E+00  0.000E+00  2.03500E+03  5.465E-06  3.000E+00  1.350E+03  0.000E+00  8.646E-01
   2   37   45     8    16    0.0000E+00 -2.8419E+01   2.9284E+01  8.647E-01  0.000E+00  0.000E+00  2.02700E+03  9.326E-04  3.000E+00  1.630E+03  0.000E+00  0.000E+00
   2   36   46     8    17    2.9284E+01  3.0148E+01   0.0000E+00  8.647E-01  0.000E+00  0.000E+00  2.02100E+03  3.281E-04  3.000E+00  1.630E+03  8.913E+00  2.124E+01
   2   35   46     8    18    0.0000E+00  8.6467E-01   0.0000E+00  8.647E-01  0.000E+00  0.000E+00  2.01400E+03  6.338E-06  3.000E+00  1.630E+03  0.000E+00  0.000E+00
   2   34   47     8    19    0.0000E+00 -2.2658E+01   2.3523E+01  8.647E-01  0.000E+00  0.000E+00  2.00700E+03  7.122E-04  3.000E+00  9.546E+02  0.000E+00  0.000E+00
   2   37   26     9     1    0.0000E+00  8.4431E-01   0.0000E+00  8.443E-01  0.000E+00  0.000E+00  2.14700E+03  9.808E-06  3.000E+00  1.350E+03  0.000E+00  8.442E-01
   2   37   27     9     2    0.0000E+00 -4.5985E+01   4.6829E+01  8.443E-01  0.000E+00  0.000E+00  2.13400E+03  1.020E-03  3.000E+00  1.350E+03  0.000E+00  0.000E+00
   2   37   28     9     3    4.6829E+01 -1.3286E+02   1.8054E+02  8.443E-01  0.000E+00  0.000E+00  2.12500E+03  2.910E-03  3.000E+00  1.630E+03  0.000E+00  0.000E+00
   2   36   29     9     4    1.8054E+02  1.9640E+01   1.6174E+02  8.443E-01  0.000E+00  0.000E+00  2.11500E+03  3.781E-03  3.000E+00  1.630E+03  0.000E+00  0.000E+00
   2   36   30     9     5    1.6174E+02 -7.7663E+01   2.4025E+02  8.443E-01  0.000E+00  0.000E+00  2.10700E+03  4.003E-03  3.000E+00  1.350E+03  0.000E+00  0.000E+00
   2   36   31     9     6    2.4025E+02 -2.0175E+02   4.4285E+02  8.443E-01  0.000E+00  0.000E+00  2.09801E+03  5.604E-03  3.000E+00  1.350E+03  0.000E+00  0.000E+00
   2   36   32     9     7    4.4285E+02 -1.5088E+02   5.9457E+02  8.443E-01  0.000E+00  0.000E+00  2.09101E+03  7.495E-03  3.000E+00  1.350E+03  0.000E+00  0.000E+00
   2   36   33     9     8    5.9457E+02 -1.4691E+02   7.4232E+02  8.443E-01  0.000E+00  0.000E+00  2.08401E+03  8.726E-03  3.000E+00  1.350E+03  0.000E+00  0.000E+00
   2   36   34     9     9    7.4232E+02 -4.2621E+01   7.8579E+02  8.443E-01  0.000E+00  0.000E+00  2.07701E+03  7.245E-03  3.000E+00  6.750E+02  0.000E+00  0.000E+00
   2   58   37    10     1    0.0000E+00 -4.5947E+01   4.6851E+01  9.033E-01  0.000E+00  0.000E+00  2.15000E+03  1.701E-03  3.000E+00  1.350E+03  0.000E+00  0.000E+00
   2   57   37    10     2    4.6851E+01 -8.5734E+01   1.3349E+02  9.033E-01  0.000E+00  0.000E+00  2.14700E+03  3.417E-03  3.000E+00  1.630E+03  0.000E+00  0.000E+00
   2   56   38    10     3    1.3349E+02 -1.4382E+01   1.4877E+02  9.033E-01  0.000E+00  0.000E+00  2.14300E+03  4.146E-03  3.000E+00  1.630E+03  0.000E+00  0.000E+00
   2   55   38    10     4    1.4877E+02 -1.8307E+02   3.3274E+02  9.033E-01  0.000E+00  0.000E+00  2.13801E+03  5.593E-03  3.000E+00  1.350E+03  0.000E+00  0.000E+00
   2   54   38    10     5    3.3274E+02 -1.2547E+02   4.5912E+02  9.033E-01  0.000E+00  0.000E+00  2.13501E+03  8.218E-03  3.000E+00  1.350E+03  0.000E+00  0.000E+00
   2   53   38    10     6    4.5912E+02 -1.2042E+02   5.8044E+02  9.033E-01  0.000E+00  0.000E+00  2.13201E+03  9.676E-03  3.000E+00  1.350E+03  0.000E+00  0.000E+00
   2   52   38    10     7    5.8044E+02 -1.7856E+02   7.5991E+02  9.033E-01  0.000E+00  0.000E+00  2.12901E+03  1.347E-02  3.000E+00  1.630E+03  0.000E+00  0.000E+00
   2   51   39    10     8    7.5991E+02  5.0590E-01   7.6031E+02  9.033E-01  0.000E+00  0.000E+00  2.12801E+03  1.452E-02  3.000E+00  1.630E+03  0.000E+00  0.000E+00
   2   50   39    10     9    7.6031E+02 -9.4084E+01   8.5530E+02  9.033E-01  0.000E+00  0.000E+00  2.12501E+03  1.274E-02  3.000E+00  1.630E+03  0.000E+00  0.000E+00
   2   49   38    10    10    8.5530E+02 -1.6354E+02   1.0197E+03  9.033E-01  0.000E+00  0.000E+00  2.12101E+03  1.460E-02  3.000E+00  1.909E+03  0.000E+00  0.000E+00
   2   48   37    10    11    1.0197E+03  1.0985E+01   1.0097E+03  9.033E-01  0.000E+00  0.000E+00  2.11801E+03  1.303E-02  3.000E+00  1.909E+03  0.000E+00  0.000E+00
   2   47   36    10    12    1.0097E+03 -3.4811E+02   1.3587E+03  9.033E-01  0.000E+00  0.000E+00  2.10901E+03  1.363E-02  3.000E+00  1.630E+03  0.000E+00  0.000E+00
   2   46   36    10    13    1.3587E+03 -1.4274E+02   1.5023E+03  9.033E-01  0.000E+00  0.000E+00  2.10602E+03  1.696E-02  3.000E+00  1.350E+03  0.000E+00  0.000E+00
   2   45   36    10    14    1.5023E+03 -1.7743E+02   1.6806E+03  9.033E-01  0.000E+00  0.000E+00  2.10202E+03  1.808E-02  3.000E+00  1.350E+03  0.000E+00  0.000E+00
   2   44   36    10    15    1.6806E+03 -1.0723E+02   1.7888E+03  9.033E-01  0.000E+00  0.000E+00  2.09902E+03  1.994E-02  3.000E+00  1.350E+03  0.000E+00  0.000E+00
   2   43   36    10    16    1.7888E+03 -2.7979E+01   1.8177E+03  9.033E-01  0.000E+00  0.000E+00  2.09602E+03  1.912E-02  3.000E+00  1.630E+03  0.000E+00  0.000E+00
   2   42   37    10    17    1.8177E+03  1.6964E+02   1.6489E+03  9.033E-01  0.000E+00  0.000E+00  2.09002E+03  1.571E-02  3.000E+00  1.630E+03  0.000E+00  0.000E+00
   2   41   37    10    18    1.6489E+03 -2.7114E+02   1.9210E+03  9.033E-01  0.000E+00  0.000E+00  2.08002E+03  1.511E-02  3.000E+00  1.350E+03  0.000E+00  0.000E+00
   2   40   37    10    19    1.9210E+03 -3.3743E+02   2.2593E+03  9.033E-01  0.000E+00  0.000E+00  2.07402E+03  2.089E-02  3.000E+00  1.630E+03  0.000E+00  0.000E+00
   2   39   38    10    20    2.2593E+03 -4.0126E+01   2.3003E+03  9.033E-01  0.000E+00  0.000E+00  2.07102E+03  2.373E-02  3.000E+00  1.630E+03  0.000E+00  0.000E+00
   2   38   38    10    21    2.3003E+03  1.3291E+01   2.2879E+03  9.033E-01  0.000E+00  0.000E+00  2.06702E+03  2.141E-02  3.000E+00  1.630E+03  0.000E+00  0.000E+00
   2   37   37    10    22    2.2879E+03 -2.9788E+02   2.5867E+03  9.033E-01  0.000E+00  0.000E+00  2.06102E+03  2.220E-02  3.000E+00  1.630E+03  0.000E+00  0.000E+00
   2   36   37    10    23    2.5867E+03 -2.0574E+02   2.7934E+03  9.033E-01  0.000E+00  0.000E+00  2.05702E+03  2.477E-02  3.000E+00  1.350E+03  0.000E+00  0.000E+00
   2   35   37    10    24    2.7934E+03 -6.3098E+01   2.8574E+03  9.033E-01  0.000E+00  0.000E+00  2.05402E+03  1.809E-02  3.000E+00  6.750E+02  0.000E+00  0.000E+00
   2   36   55    11     1    7.9646E+03 -7.6565E+01   8.0418E+03  6.717E-01  0.000E+00  0.000E+00  1.97604E+03  3.870E-02  3.000E+00  6.750E+02  0.000E+00  0.000E+00
   2   36   56    11     2    8.0418E+03 -1.3013E+02   8.1726E+03  6.717E-01  0.000E+00  0.000E+00  1.97507E+03  6.552E-02  3.000E+00  1.630E+03  0.000E+00  0.000E+00
   2   37   57    11     3    8.1726E+03 -1.3182E+02   8.3051E+03  6.717E-01  0.000E+00  0.000E+00  1.97307E+03  6.615E-02  3.000E+00  1.630E+03  0.000E+00  0.000E+00
   2   37   58    11     4    8.3051E+03 -8.1299E+01   8.3871E+03  6.717E-01  0.000E+00  0.000E+00  1.97209E+03  8.760E-02  3.000E+00  1.350E+03  0.000E+00  0.000E+00
   2   37   59    11     5    8.3871E+03  2.8509E+01   8.3592E+03  6.717E-01  0.000E+00  0.000E+00  1.97207E+03  7.130E-02  3.000E+00  1.350E+03  0.000E+00  0.000E+00
   2   37   60    11     6    8.3592E+03 -5.2944E+01   8.4128E+03  6.717E-01  0.000E+00  0.000E+00  1.97006E+03  5.736E-02  3.000E+00  1.630E+03  0.000E+00  0.000E+00
   2   38   61    11     7    8.4128E+03 -1.5974E+02   8.5733E+03  6.717E-01  0.000E+00  0.000E+00  1.96705E+03  5.225E-02  3.000E+00  1.630E+03  0.000E+00  0.000E+00
   2   38   62    11     8    8.5733E+03 -1.0538E+02   8.6793E+03  6.717E-01  0.000E+00  0.000E+00  1.96305E+03  4.789E-02  3.000E+00  6.750E+02  0.000E+00  0.000E+00
   2   51   11    12     1    0.0000E+00 -3.9831E+02   3.9943E+02  1.123E+00  0.000E+00  0.000E+00  2.38700E+03  4.096E-03  3.000E+00  1.909E+03  0.000E+00  0.000E+00
   2   50   12    12     2    3.9943E+02 -6.3315E+01   4.6387E+02  1.123E+00  0.000E+00  0.000E+00  2.37501E+03  6.202E-03  3.000E+00  1.630E+03  0.000E+00  0.000E+00
   2   49   12    12     3    4.6387E+02 -3.9508E+02   8.6007E+02  1.123E+00  0.000E+00  0.000E+00  2.36501E+03  8.376E-03  3.000E+00  1.630E+03  0.000E+00  0.000E+00
   2   48   13    12     4    8.6007E+02 -1.9064E+02   1.0518E+03  1.123E+00  0.000E+00  0.000E+00  2.35601E+03  1.121E-02  3.000E+00  1.630E+03  0.000E+00  0.000E+00
   2   48   14    12     5    1.0518E+03 -1.7408E+02   1.2270E+03  1.123E+00  0.000E+00  0.000E+00  2.35001E+03  1.222E-02  3.000E+00  1.630E+03  0.000E+00  0.000E+00
   2   47   15    12     6    1.2270E+03 -1.7669E+02   1.4048E+03  1.123E+00  0.000E+00  0.000E+00  2.34001E+03  1.358E-02  3.000E+00  1.630E+03  0.000E+00  0.000E+00
   2   47   16    12     7    1.4048E+03 -1.4471E+02   1.5507E+03  1.123E+00  0.000E+00  0.000E+00  2.33502E+03  1.598E-02  3.000E+00  1.630E+03  0.000E+00  0.000E+00
   2   46   17    12     8    1.5507E+03  6.1991E+01   1.4898E+03  1.123E+00  0.000E+00  0.000E+00  2.32902E+03  1.512E-02  3.000E+00  1.630E+03  0.000E+00  0.000E+00
   2   46   18    12     9    1.4898E+03  1.4685E+02   1.3441E+03  1.123E+00  0.000E+00  0.000E+00  2.32101E+03  1.180E-02  3.000E+00  1.350E+03  0.000E+00  0.000E+00
   2   46   19    12    10    1.3441E+03 -4.5618E+02   1.8014E+03  1.123E+00  0.000E+00  0.000E+00  2.30601E+03  1.428E-02  3.000E+00  1.350E+03  0.000E+00  0.000E+00
   2   46   20    12    11    1.8014E+03  7.6023E+02   1.0423E+03  1.123E+00  0.000E+00  0.000E+00  2.30601E+03  1.133E-02  3.000E+00  1.630E+03  0.000E+00  0.000E+00
   2   45   21    12    12    1.0423E+03 -3.2176E+02   1.3652E+03  1.123E+00  0.000E+00  0.000E+00  2.27401E+03  9.092E-03  3.000E+00  1.909E+03  0.000E+00  0.000E+00
   2   44   22    12    13    1.3652E+03 -1.7820E+02   1.5445E+03  1.123E+00  0.000E+00  0.000E+00  2.25001E+03  1.103E-02  3.000E+00  1.909E+03  0.000E+00  0.000E+00
   2   43   23    12    14    1.5445E+03  1.3927E+02   1.4063E+03  1.123E+00  0.000E+00  0.000E+00  2.23101E+03  1.120E-02  3.000E+00  1.909E+03  0.000E+00  0.000E+00
   2   42   24    12    15    1.4063E+03 -8.4138E+01   1.4916E+03  1.123E+00  0.000E+00  0.000E+00  2.20801E+03  1.157E-02  3.000E+00  1.630E+03  0.000E+00  0.000E+00
   2   42   25    12    16    1.4916E+03 -2.2749E+01   1.5155E+03  1.123E+00  0.000E+00  0.000E+00  2.20001E+03  1.275E-02  3.000E+00  1.350E+03  0.000E+00  0.000E+00
   2   42   26    12    17    1.5155E+03  1.1813E+02   1.3985E+03  1.123E+00  0.000E+00  0.000E+00  2.18801E+03  1.108E-02  3.000E+00  1.350E+03  0.000E+00  0.000E+00
   2   42   27    12    18    1.3985E+03 -2.6716E+02   1.6668E+03  1.123E+00  0.000E+00  0.000E+00  2.17001E+03  1.154E-02  3.000E+00  1.350E+03  0.000E+00  0.000E+00
   2   42   28    12    19    1.6668E+03 -9.7188E+01   1.7651E+03  1.123E+00  0.000E+00  0.000E+00  2.15901E+03  1.320E-02  3.000E+00  1.630E+03  0.000E+00  0.000E+00
   2   41   29    12    20    1.7651E+03  1.4554E+02   1.6207E+03  1.123E+00  0.000E+00  0.000E+00  2.14201E+03  1.320E-02  3.000E+00  1.909E+03  0.000E+00  0.000E+00
   2   40   30    12    21    1.6207E+03  6.7305E+01   1.5545E+03  1.123E+00  0.000E+00  0.000E+00  2.12701E+03  1.336E-02  3.000E+00  1.909E+03  0.000E+00  0.000E+00
   2   39   31    12    22    1.5545E+03  1.1455E+02   1.4410E+03  1.123E+00  0.000E+00  0.000E+00  2.11501E+03  1.337E-02  3.000E+00  1.909E+03  1.152E+02 -6.039E-01
   2   38   32    12    23    1.4410E+03  1.1455E+02   1.3276E+03  1.123E+00  0.000E+00  0.000E+00  2.10301E+03  1.245E-02  3.000E+00  1.909E+03  1.174E+02 -2.838E+00
   2   37   33    12    24    1.3276E+03  2.7015E+01   1.3017E+03  1.123E+00  0.000E+00  0.000E+00  2.08901E+03  1.207E-02  3.000E+00  1.909E+03  0.000E+00  0.000E+00
   2   36   34    12    25    1.3017E+03 -5.7282E+01   1.3601E+03  1.123E+00  0.000E+00  0.000E+00  2.07701E+03  1.038E-02  3.000E+00  9.546E+02  0.000E+00  0.000E+00
   2   38   62    13     1    8.8722E+03 -1.1263E+02   8.9855E+03  6.616E-01  0.000E+00  0.000E+00  1.96304E+03  3.714E-02  3.000E+00  6.750E+02  0.000E+00  0.000E+00
   2   38   63    13     2    8.9855E+03 -4.5214E+00   8.9907E+03  6.616E-01  0.000E+00  0.000E+00  1.96543E+03  2.428E+00  3.000E+00  1.350E+03  0.000E+00  0.000E+00
   2   38   64    13     3    8.9907E+03  2.9508E+01   8.9619E+03  6.616E-01  0.000E+00  0.000E+00  1.96543E+03  2.426E+00  3.000E+00  1.350E+03  0.000E+00  0.000E+00
   2   38   65    13     4    8.9619E+03 -2.5154E+01   8.9877E+03  6.616E-01  0.000E+00  0.000E+00  1.96307E+03  6.581E-02  3.000E+00  6.750E+02  0.000E+00  0.000E+00
   2   46   61    14     1    0.0000E+00  8.1174E-01   0.0000E+00  8.117E-01  0.000E+00  0.000E+00  2.01700E+03  5.767E-06  3.000E+00  1.350E+03  0.000E+00  0.000E+00
   2   45   61    14     2    0.0000E+00  8.1174E-01   0.0000E+00  8.117E-01  0.000E+00  0.000E+00  2.01000E+03  6.200E-06  3.000E+00  1.350E+03  8.585E-01 -4.679E-02
   2   44   61    14     3    0.0000E+00  8.1174E-01   0.0000E+00  8.117E-01  0.000E+00  0.000E+00  2.00600E+03  6.200E-06  3.000E+00  1.350E+03  0.000E+00  8.117E-01
   2   43   61    14     4    0.0000E+00  8.1174E-01   0.0000E+00  8.117E-01  0.000E+00  0.000E+00  1.99900E+03  5.897E-06  3.000E+00  1.350E+03  0.000E+00  8.117E-01
   2   42   61    14     5    0.0000E+00  8.1174E-01   0.0000E+00  8.117E-01  0.000E+00  0.000E+00  1.99300E+03  5.767E-06  3.000E+00  1.350E+03  0.000E+00  8.117E-01
   2   41   61    14     6    0.0000E+00  8.1174E-01   0.0000E+00  8.117E-01  0.000E+00  0.000E+00  1.98500E+03  5.649E-06  3.000E+00  1.350E+03  0.000E+00  0.000E+00
   2   40   61    14     7    0.0000E+00  8.1174E-01   0.0000E+00  8.117E-01  0.000E+00  0.000E+00  1.97800E+03  6.040E-06  3.000E+00  1.350E+03  0.000E+00  0.000E+00
   2   39   61    14     8    0.0000E+00  8.1174E-01   0.0000E+00  8.117E-01  0.000E+00  0.000E+00  1.97300E+03  5.977E-06  3.000E+00  1.630E+03  0.000E+00  8.117E-01
   2   38   62    14     9    0.0000E+00 -1.9214E+02   1.9295E+02  8.117E-01  0.000E+00  0.000E+00  1.96300E+03  2.724E-03  3.000E+00  9.546E+02  0.000E+00  0.000E+00
   2   39   70    15     1    9.3510E+03 -2.0314E-02   9.3512E+03  2.534E-01  0.000E+00  0.000E+00  1.94604E+03  3.710E-02  3.000E+00  6.750E+02  0.000E+00  0.000E+00
   2   40   75    16     1    1.5000E+04 -3.3343E+01   1.5034E+04  2.528E-01  0.000E+00  0.000E+00  1.93406E+03  6.246E-02  3.000E+00  6.750E+02  0.000E+00  0.000E+00
   2   40   76    16     2    1.5034E+04  0.0000E+00   1.5034E+04  2.528E-01  0.000E+00  0.000E+00  1.93309E+03  8.969E-02  3.000E+00  0.000E+00  0.000E+00  0.000E+00
   2   55   73    17     1    0.0000E+00  3.8235E-01   0.0000E+00  3.824E-01  0.000E+00  0.000E+00  2.04100E+03  6.326E-06  3.000E+00  1.350E+03  0.000E+00  0.000E+00
   2   54   73    17     2    0.0000E+00  3.8235E-01   0.0000E+00  3.824E-01  0.000E+00  0.000E+00  2.02900E+03  6.246E-06  3.000E+00  1.350E+03  0.000E+00  3.823E-01
   2   53   73    17     3    0.0000E+00  3.8235E-01   0.0000E+00  3.824E-01  0.000E+00  0.000E+00  2.01700E+03  6.699E-06  3.000E+00  1.350E+03  0.000E+00  3.823E-01
   2   52   73    17     4    0.0000E+00  3.8235E-01   0.0000E+00  3.824E-01  0.000E+00  0.000E+00  2.01000E+03  7.088E-06  3.000E+00  1.630E+03  0.000E+00  3.823E-01
   2   51   72    17     5    0.0000E+00  3.8235E-01   0.0000E+00  3.824E-01  0.000E+00  0.000E+00  1.99800E+03  7.329E-06  3.000E+00  1.630E+03  0.000E+00  3.823E-01
   2   50   72    17     6    0.0000E+00 -5.7399E+01   5.7781E+01  3.824E-01  0.000E+00  0.000E+00  1.97500E+03  1.388E-03  3.000E+00  1.350E+03  0.000E+00  0.000E+00
   2   49   72    17     7    5.7781E+01  0.0000E+00   5.8164E+01  3.824E-01  0.000E+00  0.000E+00  1.95600E+03  2.007E-03  3.000E+00  0.000E+00  0.000E+00  0.000E+00
   2   48   72    17     8    5.8164E+01  0.0000E+00   5.8546E+01  3.824E-01  0.000E+00  0.000E+00  1.95200E+03  2.022E-03  3.000E+00  0.000E+00  0.000E+00  0.000E+00
   2   47   72    17     9    5.8546E+01  0.0000E+00   5.8928E+01  3.824E-01  0.000E+00  0.000E+00  1.95000E+03  2.066E-03  3.000E+00  0.000E+00  0.000E+00  0.000E+00
   2   46   72    17    10    5.8928E+01  0.0000E+00   5.9311E+01  3.824E-01  0.000E+00  0.000E+00  1.94800E+03  2.136E-03  3.000E+00  0.000E+00  0.000E+00  0.000E+00
   2   45   72    17    11    5.9311E+01  0.0000E+00   5.9693E+01  3.824E-01  0.000E+00  0.000E+00  1.94400E+03  2.160E-03  3.000E+00  0.000E+00  0.000E+00  0.000E+00
   2   44   73    17    12    5.9693E+01  0.0000E+00   6.0076E+01  3.824E-01  0.000E+00  0.000E+00  1.94200E+03  2.218E-03  3.000E+00  0.000E+00  0.000E+00  0.000E+00
   2   43   73    17    13    6.0076E+01  0.0000E+00   6.0458E+01  3.824E-01  0.000E+00  0.000E+00  1.94200E+03  2.438E-03  3.000E+00  0.000E+00  0.000E+00  0.000E+00
   2   42   73    17    14    6.0458E+01  0.0000E+00   6.0840E+01  3.824E-01  0.000E+00  0.000E+00  1.94100E+03  2.502E-03  3.000E+00  0.000E+00  0.000E+00  0.000E+00
   2   34   45    18     1    6.3033E+03 -4.4016E+01   6.3479E+03  5.388E-01  0.000E+00  0.000E+00  2.01794E+03  4.206E-02  3.000E+00  1.630E+03  0.000E+00  0.000E+00
   2   34   46    18     2    6.3479E+03 -7.9787E+01   6.4282E+03  5.388E-01  0.000E+00  0.000E+00  2.01104E+03  3.860E-02  3.000E+00  1.350E+03  0.000E+00  0.000E+00
   2   34   47    18     3    6.4282E+03  4.0762E+00   6.4246E+03  5.388E-01  0.000E+00  0.000E+00  2.00703E+03  3.049E-02  3.000E+00  6.750E+02  0.000E+00  0.000E+00
   2   41   74    19     1    8.7776E+03 -2.0584E+02   8.9838E+03  4.084E-01  0.000E+00  0.000E+00  1.93805E+03  5.057E-02  3.000E+00  1.909E+03  0.000E+00  0.000E+00
   2   40   75    19     2    8.9838E+03 -5.8075E+01   9.0423E+03  4.084E-01  0.000E+00  0.000E+00  1.93405E+03  5.102E-02  3.000E+00  9.546E+02  0.000E+00  0.000E+00
   2   39   66    20     1    0.0000E+00  6.5249E-01   0.0000E+00  6.525E-01  0.000E+00  0.000E+00  1.96250E+03  8.954E-06  1.500E+00  8.148E+02  0.000E+00  6.525E-01
   2   39   67    20     2    0.0000E+00  6.5249E-01   0.0000E+00  6.525E-01  0.000E+00  0.000E+00  1.96225E+03  5.209E-06  1.500E+00  6.750E+02  0.000E+00  6.525E-01
   2   40   68    20     3    0.0000E+00  6.5249E-01   0.0000E+00  6.525E-01  0.000E+00  0.000E+00  1.96200E+03  5.780E-06  1.500E+00  9.546E+02  0.000E+00  6.525E-01
   2   41   69    20     4    0.0000E+00  6.5249E-01   0.0000E+00  6.525E-01  0.000E+00  0.000E+00  1.96175E+03  5.512E-06  1.500E+00  8.148E+02  0.000E+00  6.525E-01
   2   42   69    20     5    0.0000E+00  6.5249E-01   0.0000E+00  6.525E-01  0.000E+00  0.000E+00  1.96150E+03  5.512E-06  1.500E+00  8.148E+02  0.000E+00  6.525E-01
   2   43   70    20     6    0.0000E+00  6.5249E-01   0.0000E+00  6.525E-01  0.000E+00  0.000E+00  1.96125E+03  5.512E-06  1.500E+00  8.148E+02  0.000E+00  6.525E-01
   2   38   66    21     1    8.9877E+03 -7.9574E+01   9.0677E+03  4.617E-01  0.000E+00  0.000E+00  1.96006E+03  5.666E-02  3.000E+00  1.350E+03  0.000E+00  0.000E+00
   2   38   67    21     2    9.0677E+03  2.7357E+00   9.0655E+03  4.617E-01  0.000E+00  0.000E+00  1.95805E+03  5.434E-02  3.000E+00  1.630E+03  0.000E+00  0.000E+00
   2   39   68    21     3    9.0655E+03 -2.4330E+01   9.0902E+03  4.617E-01  0.000E+00  0.000E+00  1.95305E+03  4.886E-02  3.000E+00  1.630E+03  0.000E+00  0.000E+00
   2   39   69    21     4    9.0902E+03 -2.2930E+02   9.3200E+03  4.617E-01  0.000E+00  0.000E+00  1.94805E+03  5.182E-02  3.000E+00  1.350E+03  0.000E+00  0.000E+00
   2   39   70    21     5    9.3200E+03  4.9101E+00   9.3156E+03  4.617E-01  0.000E+00  0.000E+00  1.94604E+03  4.441E-02  3.000E+00  6.750E+02  0.000E+00  0.000E+00
   2   38   71    22     1    4.0000E+03 -5.8961E+01   4.0596E+03  6.154E-01  0.000E+00  0.000E+00  1.94556E+03  5.989E-02  3.000E+00  3.259E+02  0.000E+00  0.000E+00
   2   38   72    22     2    4.0596E+03 -4.3031E+01   4.1032E+03  6.154E-01  0.000E+00  0.000E+00  1.94506E+03  6.035E-02  3.000E+00  3.259E+02  0.000E+00  0.000E+00
   2   39   73    22     3    4.1032E+03  1.0827E+02   3.9956E+03  6.154E-01  0.000E+00  0.000E+00  1.94456E+03  6.006E-02  3.000E+00  3.259E+02  0.000E+00  0.000E+00
   2   39   74    22     4    3.9956E+03  8.1000E+01   3.9152E+03  6.154E-01  0.000E+00  0.000E+00  1.94406E+03  5.597E-02  3.000E+00  2.700E+02  8.358E+01 -2.583E+00
   2   39   75    22     5    3.9152E+03  8.1000E+01   3.8348E+03  6.154E-01  0.000E+00  0.000E+00  1.94356E+03  5.528E-02  3.000E+00  2.700E+02  8.358E+01 -2.581E+00
   2   39   76    22     6    3.8348E+03  0.0000E+00   3.8354E+03  6.154E-01  0.000E+00  0.000E+00  1.94305E+03  5.494E-02  3.000E+00  0.000E+00  0.000E+00  0.000E+00
   2   39   71    23     1    5.3512E+03 -2.0149E+02   5.5532E+03  4.535E-01  0.000E+00  0.000E+00  1.94204E+03  4.430E-02  3.000E+00  1.630E+03  0.000E+00  0.000E+00
   2   40   72    23     2    5.5532E+03 -8.6178E+01   5.6398E+03  4.535E-01  0.000E+00  0.000E+00  1.94105E+03  4.812E-02  3.000E+00  1.630E+03  0.000E+00  0.000E+00
   2   40   73    23     3    5.6398E+03 -1.8449E+02   5.8248E+03  4.535E-01  0.000E+00  0.000E+00  1.93804E+03  4.315E-02  3.000E+00  1.350E+03  0.000E+00  0.000E+00
   2   40   74    23     4    5.8248E+03 -8.4693E+01   5.9099E+03  4.535E-01  0.000E+00  0.000E+00  1.93605E+03  4.678E-02  3.000E+00  1.350E+03  0.000E+00  0.000E+00
   2   40   75    23     5    5.9099E+03 -4.7351E+01   5.9577E+03  4.535E-01  0.000E+00  0.000E+00  1.93404E+03  4.171E-02  3.000E+00  6.750E+02  0.000E+00  0.000E+00



1
  VOLUMETRIC BUDGET FOR UNSATURATED ZONE BENEATH STREAMS AT END OF TIME STEP    13 STRESS PERIOD   2
  ------------------------------------------------------------------------------------------------

    CUMULATIVE VOLUMES             L**3    RATES FOR THIS TIME STEP         L**3/T
    ------------------                     ------------------------


          STREAM LOSS =        12669.4893            STREAM LOSS =         1227.0392
    CHANGE IN STORAGE =         1646.5184      CHANGE IN STORAGE =           93.8727
       RECHARGE TO GW =        11022.9688         RECHARGE TO GW =         1133.1663

             TOTAL IN =        12669.4893               TOTAL IN =         1227.0392

            TOTAL OUT =        12669.4873              TOTAL OUT =         1227.0391

             IN - OUT =        1.9531E-03               IN - OUT =        1.2207E-04

  PERCENT DISCREPANCY =            0.00      PERCENT DISCREPANCY =             0.00



 ***WARNING***NUZTOP IS 3 AND ALL LAYERS  IN ROW           39  AND COLUMN 
          76  ARE INACTIVE.
 UNSATURATED FLOW WILL NOT BE ADDED TO ANY LAYER-- SOME WATER MAY FLOW PAST
  LOWEST LAYER
 ***WARNING***NUZTOP IS 3 AND ALL LAYERS  IN ROW           40  AND COLUMN 
          76  ARE INACTIVE.
 UNSATURATED FLOW WILL NOT BE ADDED TO ANY LAYER-- SOME WATER MAY FLOW PAST
  LOWEST LAYER


UNSATURATED ZONE PACKAGE VOLUMETRIC BUDGET FOR  TIME STEP    13 STRESS PERIOD    2
  ------------------------------------------------------------------------------



     CUMULATIVE VOLUMES      L**3       RATES FOR THIS TIME STEP      L**3/T
     ------------------                 ------------------------

           IN:                                      IN:
           ---                                      ---
        INFILTRATION =       26039.6903          INFILTRATION =       0.0000E+00

          OUT:                                     OUT:
          ----                                     ----
              UZF ET =      254914.5183                UZF ET =          34.1063
        UZF RECHARGE =      374213.8457          UZF RECHARGE =       24591.9241

            IN - OUT =     -603088.6737              IN - OUT =      -24626.0304

          STORAGE:                                 STORAGE:
          --------                                 --------
      STORAGE CHANGE =     -601999.3110        STORAGE CHANGE =      -24625.9371

 PERCENT DISCREPANCY IS DIFFERENCE BETWEEN IN-OUT MINUS CHANGE IN STORAGE
 DIVIDED BY THE AVERAGE OF IN AND OUT TIMES 100

 PERCENT DISCREPANCY =          -0.04     PERCENT DISCREPANCY =          -0.00






1
  VOLUMETRIC BUDGET FOR ENTIRE MODEL AT END OF TIME STEP   13, STRESS PERIOD   2
  ------------------------------------------------------------------------------

     CUMULATIVE VOLUMES      L**3       RATES FOR THIS TIME STEP      L**3/T
     ------------------                 ------------------------

           IN:                                      IN:
           ---                                      ---
             STORAGE     =        4561.4409               STORAGE     =         626.2236
       CONSTANT HEAD     =          17.5128         CONSTANT HEAD     =           0.0000
      STREAM LEAKAGE     =       56706.7266        STREAM LEAKAGE     =        4066.3728
       LAKE  SEEPAGE     =        3951.4338         LAKE  SEEPAGE     =         234.8469
        UZF RECHARGE     =      374227.4375          UZF RECHARGE     =       24591.9141
               GW ET     =           0.0000                 GW ET     =           0.0000
     SURFACE LEAKAGE     =           0.0000       SURFACE LEAKAGE     =           0.0000

                TOTAL IN =      439464.5312                  TOTAL IN =       29519.3594

          OUT:                                     OUT:
          ----                                     ----
             STORAGE     =      185464.0938               STORAGE     =       13243.5000
       CONSTANT HEAD     =         923.5858         CONSTANT HEAD     =          71.9984
      STREAM LEAKAGE     =      164086.2969        STREAM LEAKAGE     =       13085.8838
       LAKE  SEEPAGE     =       37113.0664         LAKE  SEEPAGE     =        2671.3613
        UZF RECHARGE     =           0.0000          UZF RECHARGE     =           0.0000
               GW ET     =       47830.6445                 GW ET     =           3.7182
     SURFACE LEAKAGE     =        4927.6548       SURFACE LEAKAGE     =         509.0469

               TOTAL OUT =      440345.3125                 TOTAL OUT =       29585.5078

                IN - OUT =        -880.7812                  IN - OUT =         -66.1484

     PERCENT DISCREPANCY =          -0.20         PERCENT DISCREPANCY =          -0.22






         TIME SUMMARY AT END OF TIME STEP   13 IN STRESS PERIOD    2
                    SECONDS     MINUTES      HOURS       DAYS        YEARS
                    -----------------------------------------------------------
   TIME STEP LENGTH  86400.      1440.0      24.000      1.0000     2.73785E-03
 STRESS PERIOD TIME 1.12320E+06  18720.      312.00      13.000     3.55921E-02
         TOTAL TIME 1.20960E+06  20160.      336.00      14.000     3.83299E-02
1
                                                   Max.-Head-Change                         Max.-Flux-Residual
  Residual-Control   Outer-Iter.   Inner-Iter.     Column Row Layer    Maximum-Head-Change  Column Row Layer    Maximum-Flux-Residual          L2-NORM 
          0                 1           5            24   34     2       0.2552819107E+01      55   35    2         0.1480184367E+03      0.5213609063E+03
          0                 2           4            52   59     2       0.1139639649E+01      68   27    2         0.2414721309E+02      0.9790282053E+02
          0                 3           3            52   59     2      -0.8238803346E-01      68   27    2         0.6550590459E+01      0.2381765989E+02
          0                 4           2            52   59     2      -0.7315953456E-02      68   27    2         0.1777603673E+01      0.7370380102E+01
          0                 5           2            30   55     2      -0.1638626356E-02      69   30    2        -0.9744127907E+00      0.2800683889E+01
          0                 6           1             3   59     2       0.4950428822E-03      69   30    2        -0.5776324468E+00      0.1183911817E+01
          0                 7           1             3   59     2       0.2165312692E-03      69   30    2        -0.3035913605E+00      0.5222439196E+00
          0                 8           1            69   30     2      -0.1038148036E-03      69   30    2        -0.1492110751E+00      0.2333119835E+00
          0                 9           1            69   30     2      -0.4895312838E-04      69   30    2        -0.7033686002E-01      0.1044314043E+00

    ------------------------------------------------
       NWT REQUIRED            9 OUTER ITERATIONS 
       AND A TOTAL OF         20 INNER ITERATIONS.
    ------------------------------------------------
                                                   Max.-Head-Change                         Max.-Flux-Residual
  Residual-Control   Outer-Iter.   Inner-Iter.     Column Row Layer    Maximum-Head-Change  Column Row Layer    Maximum-Flux-Residual          L2-NORM 
          0                 1           3            63   38     2       0.2272234319E+00      63   38    2         0.2934102478E+03      0.3812224105E+03
          0                 2           3            64   38     2       0.6527933800E-01      64   38    2         0.8461622603E+02      0.9727855201E+02
          0                 3           3            23   37     2      -0.4059186804E-01      63   38    2        -0.1277350844E+02      0.2328346118E+02
          0                 4           2            23   37     2      -0.4085755025E-02      69   30    2        -0.5368427032E+01      0.9094626954E+01
          0                 5           2            69   30     2      -0.2231577808E-02      69   30    2        -0.3208438965E+01      0.4102268578E+01
          0                 6           2            69   30     2      -0.1172224781E-02      69   30    2        -0.1684919403E+01      0.1920967267E+01
          0                 7           1            69   30     2      -0.5704879178E-03      69   30    2        -0.8198268375E+00      0.8923867567E+00
          0                 8           1            69   30     2      -0.2648576301E-03      69   30    2        -0.3805101045E+00      0.4057030410E+00
          0                 9           1            69   30     2      -0.1192129675E-03      69   30    2        -0.1712299278E+00      0.1806527312E+00
          0                10           1            69   30     2      -0.5255802366E-04      69   30    2        -0.7547626203E-01      0.7914919809E-01

    ------------------------------------------------
       NWT REQUIRED           10 OUTER ITERATIONS 
       AND A TOTAL OF         19 INNER ITERATIONS.
    ------------------------------------------------
                                                   Max.-Head-Change                         Max.-Flux-Residual
  Residual-Control   Outer-Iter.   Inner-Iter.     Column Row Layer    Maximum-Head-Change  Column Row Layer    Maximum-Flux-Residual          L2-NORM 
          0                 1           2            30   55     2       0.4131291996E-01      63   38    2         0.6442073764E+01      0.1361898488E+02
          0                 2           3            23   37     2       0.4503599115E-01      69   30    2         0.1002367631E+02      0.1834626242E+02
          0                 3           3            23   37     2      -0.4059113020E-01      69   38    2        -0.1189888261E+02      0.2392395453E+02
          0                 4           2            23   37     2      -0.4085713939E-02      69   30    2        -0.5368307144E+01      0.9237233225E+01
          0                 5           2            69   30     2      -0.2231540262E-02      69   30    2        -0.3208385042E+01      0.4105429275E+01
          0                 6           2            69   30     2      -0.1172212568E-02      69   30    2        -0.1684901771E+01      0.1918888168E+01
          0                 7           1            69   30     2      -0.5704839487E-03      69   30    2        -0.8198210056E+00      0.8918751143E+00
          0                 8           1            69   30     2      -0.2648562663E-03      69   30    2        -0.3805081019E+00      0.4056326392E+00
          0                 9           1            69   30     2      -0.1192125005E-03      69   30    2        -0.1712292410E+00      0.1806517194E+00
          0                10           1            69   30     2      -0.5255786280E-04      69   30    2        -0.7547602567E-01      0.7914884338E-01

    ------------------------------------------------
       NWT REQUIRED           10 OUTER ITERATIONS 
       AND A TOTAL OF         18 INNER ITERATIONS.
    ------------------------------------------------
                                                   Max.-Head-Change                         Max.-Flux-Residual
  Residual-Control   Outer-Iter.   Inner-Iter.     Column Row Layer    Maximum-Head-Change  Column Row Layer    Maximum-Flux-Residual          L2-NORM 
          0                 1           2            30   55     2       0.4131300949E-01      63   38    2         0.5925852156E+01      0.1321193659E+02
          0                 2           3            23   37     2       0.4503598852E-01      69   30    2         0.1002365744E+02      0.1826994100E+02
          0                 3           3            23   37     2      -0.4059112455E-01      69   38    2        -0.1189888744E+02      0.2392546187E+02
          0                 4           2            23   37     2      -0.4085717701E-02      69   30    2        -0.5368308044E+01      0.9237641904E+01
          0                 5           2            69   30     2      -0.2231540552E-02      69   30    2        -0.3208385124E+01      0.4105471716E+01
          0                 6           2            69   30     2      -0.1172209290E-02      69   30    2        -0.1684901536E+01      0.1918299836E+01
          0                 7           1            69   30     2      -0.5704858349E-03      69   30    2        -0.8198239590E+00      0.8917439633E+00
          0                 8           1            69   30     2      -0.2648564012E-03      69   30    2        -0.3805092097E+00      0.4056102558E+00
          0                 9           1            69   30     2      -0.1192129137E-03      69   30    2        -0.1712302147E+00      0.1806484880E+00
          0                10           1            69   30     2      -0.5255817305E-04      69   30    2        -0.7547659930E-01      0.7914854736E-01

    ------------------------------------------------
       NWT REQUIRED           10 OUTER ITERATIONS 
       AND A TOTAL OF         18 INNER ITERATIONS.
    ------------------------------------------------

 OUTPUT CONTROL FOR STRESS PERIOD    2   TIME STEP   14
    PRINT BUDGET



 STREAM LISTING     PERIOD      2   STEP       14

 LAYER ROW COL. STREAM  RCH.   FLOW INTO    STREAM     FLOW OUT OF   OVRLND.    DIRECT     STREAM      STREAM      STREAM     STREAM  STREAMBED   FLOW TO   CHNG. UNSAT. 
                SEG.NO.  NO.   STRM. RCH.    LOSS       STRM. RCH.   RUNOFF     PRECIP       ET         HEAD        DEPTH      WIDTH  CONDCTNC.   WAT. TAB.

   2   18   62     1     1    0.0000E+00  9.3524E-01   0.0000E+00  9.352E-01  0.000E+00  0.000E+00  2.07300E+03  6.259E-06  3.000E+00  1.909E+03  0.000E+00  0.000E+00
   2   19   63     1     2    0.0000E+00 -5.8008E+01   5.8943E+01  9.352E-01  0.000E+00  0.000E+00  2.06300E+03  1.358E-03  3.000E+00  1.909E+03  0.000E+00  0.000E+00
   2   20   64     1     3    5.8943E+01 -8.3845E+01   1.4372E+02  9.352E-01  0.000E+00  0.000E+00  2.05400E+03  3.118E-03  3.000E+00  1.630E+03  0.000E+00  0.000E+00
   2   21   64     1     4    1.4372E+02 -8.6662E+01   2.3132E+02  9.352E-01  0.000E+00  0.000E+00  2.05101E+03  5.553E-03  3.000E+00  1.630E+03  0.000E+00  0.000E+00
   2   22   65     1     5    2.3132E+02 -1.3219E+01   2.4548E+02  9.352E-01  0.000E+00  0.000E+00  2.04801E+03  5.463E-03  3.000E+00  9.546E+02  0.000E+00  0.000E+00
   2   20   66     2     1    0.0000E+00 -4.5952E+01   4.6836E+01  8.842E-01  0.000E+00  0.000E+00  2.05300E+03  1.671E-03  3.000E+00  1.909E+03  0.000E+00  0.000E+00
   2   21   65     2     2    4.6836E+01  4.7720E+01   0.0000E+00  8.842E-01  0.000E+00  0.000E+00  2.05100E+03  5.774E-04  3.000E+00  1.630E+03  0.000E+00  0.000E+00
   2   22   65     2     3    0.0000E+00 -1.2643E+01   1.3527E+01  8.842E-01  0.000E+00  0.000E+00  2.04800E+03  5.808E-04  3.000E+00  6.750E+02  0.000E+00  0.000E+00
   2   22   65     3     1    2.5900E+02 -9.4996E+00   2.6955E+02  1.044E+00  0.000E+00  0.000E+00  2.04801E+03  5.237E-03  3.000E+00  6.750E+02  0.000E+00  0.000E+00
   2   23   65     3     2    2.6955E+02 -9.0274E+01   3.6086E+02  1.044E+00  0.000E+00  0.000E+00  2.04501E+03  9.336E-03  3.000E+00  1.630E+03  0.000E+00  0.000E+00
   2   24   66     3     3    3.6086E+02 -2.0873E+01   3.8278E+02  1.044E+00  0.000E+00  0.000E+00  2.04536E+03  3.591E-01  3.000E+00  1.909E+03  0.000E+00  0.000E+00
   2   25   67     3     4    3.8278E+02  1.7251E+01   3.6657E+02  1.044E+00  0.000E+00  0.000E+00  2.04501E+03  1.086E-02  3.000E+00  1.909E+03  0.000E+00  0.000E+00
   2   26   68     3     5    3.6657E+02  2.9512E+01   3.3811E+02  1.044E+00  0.000E+00  0.000E+00  2.04201E+03  9.157E-03  3.000E+00  1.630E+03  0.000E+00  0.000E+00
   2   27   68     3     6    3.3811E+02  9.7776E+01   2.4138E+02  1.044E+00  0.000E+00  0.000E+00  2.04101E+03  7.210E-03  3.000E+00  1.630E+03  1.030E+02 -5.254E+00
   2   28   69     3     7    2.4138E+02  9.7776E+01   1.4464E+02  1.044E+00  0.000E+00  0.000E+00  2.03600E+03  4.590E-03  3.000E+00  1.630E+03  1.025E+02 -4.706E+00
   2   29   69     3     8    1.4464E+02  8.1000E+01   6.4688E+01  1.044E+00  0.000E+00  0.000E+00  2.02900E+03  2.934E-03  3.000E+00  1.350E+03  8.444E+01 -3.437E+00
   2   30   69     3     9    6.4688E+01  6.5733E+01   0.0000E+00  1.044E+00  0.000E+00  0.000E+00  2.02300E+03  4.769E-04  3.000E+00  1.630E+03  6.706E+01 -1.324E+00
   2   31   70     3    10    0.0000E+00  1.0443E+00   0.0000E+00  1.044E+00  0.000E+00  0.000E+00  2.01100E+03  6.582E-06  3.000E+00  1.630E+03  0.000E+00  0.000E+00
   2   32   70     3    11    0.0000E+00 -7.7796E+01   7.8841E+01  1.044E+00  0.000E+00  0.000E+00  2.00500E+03  1.889E-03  3.000E+00  1.350E+03  0.000E+00  0.000E+00
   2   33   70     3    12    7.8841E+01  7.9885E+01   0.0000E+00  1.044E+00  0.000E+00  0.000E+00  2.00300E+03  5.278E-04  3.000E+00  1.630E+03  8.186E+01 -1.974E+00
   2   34   69     3    13    0.0000E+00 -4.2420E+01   4.3464E+01  1.044E+00  0.000E+00  0.000E+00  1.98600E+03  9.403E-04  3.000E+00  1.630E+03  0.000E+00  0.000E+00
   2   35   69     3    14    4.3464E+01 -1.2773E+02   1.7224E+02  1.044E+00  0.000E+00  0.000E+00  1.97300E+03  2.665E-03  3.000E+00  1.350E+03  0.000E+00  0.000E+00
   2   36   69     3    15    1.7224E+02  8.6220E+00   1.6466E+02  1.044E+00  0.000E+00  0.000E+00  1.96700E+03  3.817E-03  3.000E+00  1.350E+03  0.000E+00  0.000E+00
   2   37   69     3    16    1.6466E+02  2.6014E+01   1.3969E+02  1.044E+00  0.000E+00  0.000E+00  1.95900E+03  3.591E-03  3.000E+00  1.350E+03  0.000E+00  0.000E+00
   2   38   69     3    17    1.3969E+02  1.4073E+02   0.0000E+00  1.044E+00  0.000E+00  0.000E+00  1.95300E+03  8.322E-04  3.000E+00  1.630E+03  0.000E+00  0.000E+00
   2   39   70     3    18    0.0000E+00 -3.6884E+01   3.7928E+01  1.044E+00  0.000E+00  0.000E+00  1.94600E+03  9.973E-04  3.000E+00  9.546E+02  0.000E+00  0.000E+00
   2   25   49     4     1    0.0000E+00 -1.4876E+02   1.4982E+02  1.067E+00  0.000E+00  0.000E+00  2.03500E+03  2.306E-03  3.000E+00  1.909E+03  0.000E+00  0.000E+00
   2   26   50     4     2    1.4982E+02 -1.0228E+02   2.5317E+02  1.067E+00  0.000E+00  0.000E+00  2.02600E+03  4.530E-03  3.000E+00  1.909E+03  0.000E+00  0.000E+00
   2   27   51     4     3    2.5317E+02 -9.1464E+01   3.4570E+02  1.067E+00  0.000E+00  0.000E+00  2.01901E+03  5.973E-03  3.000E+00  1.630E+03  0.000E+00  0.000E+00
   2   28   51     4     4    3.4570E+02 -8.2736E+01   4.2950E+02  1.067E+00  0.000E+00  0.000E+00  2.01401E+03  7.365E-03  3.000E+00  1.630E+03  0.000E+00  0.000E+00
   2   29   52     4     5    4.2950E+02 -7.7220E+01   5.0779E+02  1.067E+00  0.000E+00  0.000E+00  2.00901E+03  8.254E-03  3.000E+00  1.630E+03  0.000E+00  0.000E+00
   2   30   52     4     6    5.0779E+02 -6.1634E+01   5.7049E+02  1.067E+00  0.000E+00  0.000E+00  2.00401E+03  8.485E-03  3.000E+00  1.350E+03  0.000E+00  0.000E+00
   2   31   52     4     7    5.7049E+02 -8.4589E+01   6.5614E+02  1.067E+00  0.000E+00  0.000E+00  1.99901E+03  1.020E-02  3.000E+00  1.350E+03  0.000E+00  0.000E+00
   2   32   52     4     8    6.5614E+02 -4.5870E+00   6.6180E+02  1.067E+00  0.000E+00  0.000E+00  1.99701E+03  1.083E-02  3.000E+00  1.630E+03  0.000E+00  0.000E+00
   2   33   53     4     9    6.6180E+02 -3.9971E+00   6.6686E+02  1.067E+00  0.000E+00  0.000E+00  1.99101E+03  1.067E-02  3.000E+00  1.909E+03  0.000E+00  0.000E+00
   2   34   54     4    10    6.6686E+02  1.3056E+02   5.3736E+02  1.067E+00  0.000E+00  0.000E+00  1.98701E+03  1.038E-02  3.000E+00  1.909E+03  0.000E+00  0.000E+00
   2   35   55     4    11    5.3736E+02  1.9922E+02   3.3921E+02  1.067E+00  0.000E+00  0.000E+00  1.98201E+03  7.705E-03  3.000E+00  1.630E+03  0.000E+00  0.000E+00
   2   36   55     4    12    3.3921E+02 -1.0154E+02   4.4181E+02  1.067E+00  0.000E+00  0.000E+00  1.97601E+03  6.321E-03  3.000E+00  6.750E+02  0.000E+00  0.000E+00
   2   35   37     5     1    5.2429E+03  0.0000E+00   5.2430E+03  7.397E-02  0.000E+00  0.000E+00  2.05403E+03  2.600E-02  3.000E+00  0.000E+00  0.000E+00  0.000E+00
   2   34   38     5     2    5.2430E+03  0.0000E+00   5.2430E+03  7.397E-02  0.000E+00  0.000E+00  2.04003E+03  3.202E-02  3.000E+00  0.000E+00  0.000E+00  0.000E+00
   2   33   39     5     3    5.2430E+03  0.0000E+00   5.2431E+03  7.397E-02  0.000E+00  0.000E+00  2.03204E+03  3.804E-02  3.000E+00  0.000E+00  0.000E+00  0.000E+00
   2   32   40     5     4    5.2431E+03  0.0000E+00   5.2432E+03  7.397E-02  0.000E+00  0.000E+00  2.03004E+03  3.758E-02  3.000E+00  0.000E+00  0.000E+00  0.000E+00
   2   32   41     5     5    5.2432E+03  0.0000E+00   5.2433E+03  7.397E-02  0.000E+00  0.000E+00  2.02603E+03  3.145E-02  3.000E+00  0.000E+00  0.000E+00  0.000E+00
   2   32   42     5     6    5.2433E+03  0.0000E+00   5.2433E+03  7.397E-02  0.000E+00  0.000E+00  2.02204E+03  3.697E-02  3.000E+00  0.000E+00  0.000E+00  0.000E+00
   2   32   43     5     7    5.2433E+03  0.0000E+00   5.2434E+03  7.397E-02  0.000E+00  0.000E+00  2.02004E+03  4.097E-02  3.000E+00  0.000E+00  0.000E+00  0.000E+00
   2   33   44     5     8    5.2434E+03  0.0000E+00   5.2435E+03  7.397E-02  0.000E+00  0.000E+00  2.01904E+03  4.102E-02  3.000E+00  0.000E+00  0.000E+00  0.000E+00
   2   34   47     6     1    8.1184E+03  3.8308E+00   8.1154E+03  8.684E-01  0.000E+00  0.000E+00  2.00703E+03  3.242E-02  3.000E+00  6.750E+02  0.000E+00  0.000E+00
   2   34   48     6     2    8.1154E+03 -1.3490E+02   8.2512E+03  8.684E-01  0.000E+00  0.000E+00  2.00104E+03  4.244E-02  3.000E+00  1.630E+03  0.000E+00  0.000E+00
   2   35   49     6     3    8.2512E+03 -2.7093E+02   8.5230E+03  8.684E-01  0.000E+00  0.000E+00  1.99405E+03  4.528E-02  3.000E+00  1.630E+03  0.000E+00  0.000E+00
   2   35   50     6     4    8.5230E+03 -2.0127E+02   8.7251E+03  8.684E-01  0.000E+00  0.000E+00  1.99006E+03  5.513E-02  3.000E+00  1.350E+03  0.000E+00  0.000E+00
   2   35   51     6     5    8.7251E+03  1.1676E+01   8.7143E+03  8.684E-01  0.000E+00  0.000E+00  1.98906E+03  5.559E-02  3.000E+00  1.630E+03  0.000E+00  0.000E+00
   2   36   52     6     6    8.7143E+03 -1.3133E+02   8.8465E+03  8.684E-01  0.000E+00  0.000E+00  1.98405E+03  4.943E-02  3.000E+00  1.630E+03  0.000E+00  0.000E+00
   2   36   53     6     7    8.8465E+03 -2.6651E+02   9.1139E+03  8.684E-01  0.000E+00  0.000E+00  1.98006E+03  6.390E-02  3.000E+00  1.630E+03  0.000E+00  0.000E+00
   2   37   54     6     8    9.1139E+03 -5.5962E+01   9.1707E+03  8.684E-01  0.000E+00  0.000E+00  1.98007E+03  6.773E-02  3.000E+00  1.909E+03  0.000E+00  0.000E+00
   2   36   55     6     9    9.1707E+03 -1.0026E+02   9.2718E+03  8.684E-01  0.000E+00  0.000E+00  1.97605E+03  5.172E-02  3.000E+00  9.546E+02  0.000E+00  0.000E+00
   2   36   34     7     1    2.1722E+03 -5.3764E+01   2.2265E+03  5.383E-01  0.000E+00  0.000E+00  2.07701E+03  1.403E-02  3.000E+00  9.546E+02  0.000E+00  0.000E+00
   2   35   35     7     2    2.2265E+03 -1.1598E+02   2.3431E+03  5.383E-01  0.000E+00  0.000E+00  2.06702E+03  1.891E-02  3.000E+00  1.630E+03  0.000E+00  0.000E+00
   2   35   36     7     3    2.3431E+03  1.4178E+01   2.3294E+03  5.383E-01  0.000E+00  0.000E+00  2.06202E+03  1.890E-02  3.000E+00  1.350E+03  0.000E+00  0.000E+00
   2   35   37     7     4    2.3294E+03 -6.5253E+01   2.3952E+03  5.383E-01  0.000E+00  0.000E+00  2.05401E+03  1.452E-02  3.000E+00  6.750E+02  0.000E+00  0.000E+00
   2   52   49     8     1    0.0000E+00 -2.0408E+02   2.0491E+02  8.288E-01  0.000E+00  0.000E+00  2.12100E+03  2.867E-03  3.000E+00  1.909E+03  0.000E+00  0.000E+00
   2   51   48     8     2    2.0491E+02 -2.4315E+02   4.4889E+02  8.288E-01  0.000E+00  0.000E+00  2.11701E+03  9.180E-03  3.000E+00  1.909E+03  0.000E+00  0.000E+00
   2   50   47     8     3    4.4889E+02  1.8460E+02   2.6512E+02  8.288E-01  0.000E+00  0.000E+00  2.11701E+03  7.496E-03  3.000E+00  1.630E+03  0.000E+00  0.000E+00
   2   49   47     8     4    2.6512E+02 -2.6822E+02   5.3417E+02  8.288E-01  0.000E+00  0.000E+00  2.10901E+03  7.502E-03  3.000E+00  1.630E+03  0.000E+00  0.000E+00
   2   48   46     8     5    5.3417E+02  8.2847E+00   5.2671E+02  8.288E-01  0.000E+00  0.000E+00  2.10701E+03  1.170E-02  3.000E+00  1.630E+03  0.000E+00  0.000E+00
   2   47   46     8     6    5.2671E+02  1.5569E+02   3.7185E+02  8.288E-01  0.000E+00  0.000E+00  2.10501E+03  1.001E-02  3.000E+00  1.350E+03  0.000E+00  0.000E+00
   2   46   46     8     7    3.7185E+02  8.1000E+01   2.9168E+02  8.288E-01  0.000E+00  0.000E+00  2.10301E+03  7.391E-03  3.000E+00  1.350E+03  8.286E+01 -1.861E+00
   2   45   46     8     8    2.9168E+02  8.1000E+01   2.1151E+02  8.288E-01  0.000E+00  0.000E+00  2.09901E+03  5.085E-03  3.000E+00  1.350E+03  8.355E+01 -2.552E+00
   2   44   46     8     9    2.1151E+02  8.1000E+01   1.3134E+02  8.288E-01  0.000E+00  0.000E+00  2.09100E+03  3.519E-03  3.000E+00  1.350E+03  8.362E+01 -2.622E+00
   2   43   46     8    10    1.3134E+02  8.1000E+01   5.1166E+01  8.288E-01  0.000E+00  0.000E+00  2.08000E+03  2.411E-03  3.000E+00  1.350E+03  8.342E+01 -2.425E+00
   2   42   46     8    11    5.1166E+01  5.1995E+01   0.0000E+00  8.288E-01  0.000E+00  0.000E+00  2.07200E+03  4.014E-04  3.000E+00  1.630E+03  3.812E+01  1.387E+01
   2   41   45     8    12    0.0000E+00  8.2883E-01   0.0000E+00  8.288E-01  0.000E+00  0.000E+00  2.06000E+03  5.730E-06  3.000E+00  1.630E+03  0.000E+00  0.000E+00
   2   40   45     8    13    0.0000E+00  8.2883E-01   0.0000E+00  8.288E-01  0.000E+00  0.000E+00  2.05400E+03  5.840E-06  3.000E+00  1.350E+03  0.000E+00  8.288E-01
   2   39   45     8    14    0.0000E+00  8.2883E-01   0.0000E+00  8.288E-01  0.000E+00  0.000E+00  2.04600E+03  5.328E-06  3.000E+00  1.350E+03  0.000E+00  8.288E-01
   2   38   45     8    15    0.0000E+00  8.2883E-01   0.0000E+00  8.288E-01  0.000E+00  0.000E+00  2.03500E+03  5.328E-06  3.000E+00  1.350E+03  3.415E-01  4.873E-01
   2   37   45     8    16    0.0000E+00 -2.8233E+01   2.9062E+01  8.288E-01  0.000E+00  0.000E+00  2.02700E+03  9.284E-04  3.000E+00  1.630E+03  0.000E+00  0.000E+00
   2   36   46     8    17    2.9062E+01  2.9891E+01   0.0000E+00  8.288E-01  0.000E+00  0.000E+00  2.02100E+03  3.265E-04  3.000E+00  1.630E+03  3.129E+01 -1.395E+00
   2   35   46     8    18    0.0000E+00  8.2883E-01   0.0000E+00  8.288E-01  0.000E+00  0.000E+00  2.01400E+03  6.179E-06  3.000E+00  1.630E+03  0.000E+00  0.000E+00
   2   34   47     8    19    0.0000E+00 -2.4812E+01   2.5641E+01  8.288E-01  0.000E+00  0.000E+00  2.00700E+03  7.500E-04  3.000E+00  9.546E+02  0.000E+00  0.000E+00
   2   37   26     9     1    0.0000E+00  8.0862E-01   0.0000E+00  8.086E-01  0.000E+00  0.000E+00  2.14700E+03  9.557E-06  3.000E+00  1.350E+03  0.000E+00  8.086E-01
   2   37   27     9     2    0.0000E+00 -4.5593E+01   4.6401E+01  8.086E-01  0.000E+00  0.000E+00  2.13400E+03  1.014E-03  3.000E+00  1.350E+03  0.000E+00  0.000E+00
   2   37   28     9     3    4.6401E+01 -1.3278E+02   1.7999E+02  8.086E-01  0.000E+00  0.000E+00  2.12500E+03  2.903E-03  3.000E+00  1.630E+03  0.000E+00  0.000E+00
   2   36   29     9     4    1.7999E+02  1.8506E+01   1.6229E+02  8.086E-01  0.000E+00  0.000E+00  2.11500E+03  3.781E-03  3.000E+00  1.630E+03  0.000E+00  0.000E+00
   2   36   30     9     5    1.6229E+02 -7.7726E+01   2.4083E+02  8.086E-01  0.000E+00  0.000E+00  2.10700E+03  4.010E-03  3.000E+00  1.350E+03  0.000E+00  0.000E+00
   2   36   31     9     6    2.4083E+02 -2.0127E+02   4.4290E+02  8.086E-01  0.000E+00  0.000E+00  2.09801E+03  5.607E-03  3.000E+00  1.350E+03  0.000E+00  0.000E+00
   2   36   32     9     7    4.4290E+02 -1.5042E+02   5.9413E+02  8.086E-01  0.000E+00  0.000E+00  2.09101E+03  7.493E-03  3.000E+00  1.350E+03  0.000E+00  0.000E+00
   2   36   33     9     8    5.9413E+02 -1.4627E+02   7.4121E+02  8.086E-01  0.000E+00  0.000E+00  2.08401E+03  8.720E-03  3.000E+00  1.350E+03  0.000E+00  0.000E+00
   2   36   34     9     9    7.4121E+02 -4.2603E+01   7.8462E+02  8.086E-01  0.000E+00  0.000E+00  2.07701E+03  7.239E-03  3.000E+00  6.750E+02  0.000E+00  0.000E+00
   2   58   37    10     1    0.0000E+00 -4.6807E+01   4.7667E+01  8.596E-01  0.000E+00  0.000E+00  2.15000E+03  1.719E-03  3.000E+00  1.350E+03  0.000E+00  0.000E+00
   2   57   37    10     2    4.7667E+01 -8.5409E+01   1.3394E+02  8.596E-01  0.000E+00  0.000E+00  2.14700E+03  3.432E-03  3.000E+00  1.630E+03  0.000E+00  0.000E+00
   2   56   38    10     3    1.3394E+02 -1.4109E+01   1.4890E+02  8.596E-01  0.000E+00  0.000E+00  2.14300E+03  4.151E-03  3.000E+00  1.630E+03  0.000E+00  0.000E+00
   2   55   38    10     4    1.4890E+02 -1.8252E+02   3.3228E+02  8.596E-01  0.000E+00  0.000E+00  2.13801E+03  5.591E-03  3.000E+00  1.350E+03  0.000E+00  0.000E+00
   2   54   38    10     5    3.3228E+02 -1.2511E+02   4.5825E+02  8.596E-01  0.000E+00  0.000E+00  2.13501E+03  8.210E-03  3.000E+00  1.350E+03  0.000E+00  0.000E+00
   2   53   38    10     6    4.5825E+02 -1.1990E+02   5.7900E+02  8.596E-01  0.000E+00  0.000E+00  2.13201E+03  9.663E-03  3.000E+00  1.350E+03  0.000E+00  0.000E+00
   2   52   38    10     7    5.7900E+02 -1.7847E+02   7.5834E+02  8.596E-01  0.000E+00  0.000E+00  2.12901E+03  1.345E-02  3.000E+00  1.630E+03  0.000E+00  0.000E+00
   2   51   39    10     8    7.5834E+02  5.9708E-01   7.5860E+02  8.596E-01  0.000E+00  0.000E+00  2.12801E+03  1.450E-02  3.000E+00  1.630E+03  0.000E+00  0.000E+00
   2   50   39    10     9    7.5860E+02 -9.3438E+01   8.5290E+02  8.596E-01  0.000E+00  0.000E+00  2.12501E+03  1.272E-02  3.000E+00  1.630E+03  0.000E+00  0.000E+00
   2   49   38    10    10    8.5290E+02 -1.6293E+02   1.0167E+03  8.596E-01  0.000E+00  0.000E+00  2.12101E+03  1.458E-02  3.000E+00  1.909E+03  0.000E+00  0.000E+00
   2   48   37    10    11    1.0167E+03  1.1488E+01   1.0061E+03  8.596E-01  0.000E+00  0.000E+00  2.11801E+03  1.300E-02  3.000E+00  1.909E+03  0.000E+00  0.000E+00
   2   47   36    10    12    1.0061E+03 -3.4761E+02   1.3545E+03  8.596E-01  0.000E+00  0.000E+00  2.10901E+03  1.360E-02  3.000E+00  1.630E+03  0.000E+00  0.000E+00
   2   46   36    10    13    1.3545E+03 -1.4211E+02   1.4975E+03  8.596E-01  0.000E+00  0.000E+00  2.10602E+03  1.693E-02  3.000E+00  1.350E+03  0.000E+00  0.000E+00
   2   45   36    10    14    1.4975E+03 -1.7681E+02   1.6752E+03  8.596E-01  0.000E+00  0.000E+00  2.10202E+03  1.804E-02  3.000E+00  1.350E+03  0.000E+00  0.000E+00
   2   44   36    10    15    1.6752E+03 -1.0671E+02   1.7827E+03  8.596E-01  0.000E+00  0.000E+00  2.09902E+03  1.990E-02  3.000E+00  1.350E+03  0.000E+00  0.000E+00
   2   43   36    10    16    1.7827E+03 -2.7430E+01   1.8110E+03  8.596E-01  0.000E+00  0.000E+00  2.09602E+03  1.908E-02  3.000E+00  1.630E+03  0.000E+00  0.000E+00
   2   42   37    10    17    1.8110E+03  1.6908E+02   1.6428E+03  8.596E-01  0.000E+00  0.000E+00  2.09002E+03  1.568E-02  3.000E+00  1.630E+03  0.000E+00  0.000E+00
   2   41   37    10    18    1.6428E+03 -2.7069E+02   1.9143E+03  8.596E-01  0.000E+00  0.000E+00  2.08002E+03  1.508E-02  3.000E+00  1.350E+03  0.000E+00  0.000E+00
   2   40   37    10    19    1.9143E+03 -3.3687E+02   2.2521E+03  8.596E-01  0.000E+00  0.000E+00  2.07402E+03  2.085E-02  3.000E+00  1.630E+03  0.000E+00  0.000E+00
   2   39   38    10    20    2.2521E+03 -3.9491E+01   2.2924E+03  8.596E-01  0.000E+00  0.000E+00  2.07102E+03  2.369E-02  3.000E+00  1.630E+03  0.000E+00  0.000E+00
   2   38   38    10    21    2.2924E+03  1.3984E+01   2.2793E+03  8.596E-01  0.000E+00  0.000E+00  2.06702E+03  2.136E-02  3.000E+00  1.630E+03  0.000E+00  0.000E+00
   2   37   37    10    22    2.2793E+03 -2.9747E+02   2.5776E+03  8.596E-01  0.000E+00  0.000E+00  2.06102E+03  2.215E-02  3.000E+00  1.630E+03  0.000E+00  0.000E+00
   2   36   37    10    23    2.5776E+03 -2.0546E+02   2.7839E+03  8.596E-01  0.000E+00  0.000E+00  2.05702E+03  2.472E-02  3.000E+00  1.350E+03  0.000E+00  0.000E+00
   2   35   37    10    24    2.7839E+03 -6.2868E+01   2.8477E+03  8.596E-01  0.000E+00  0.000E+00  2.05402E+03  1.806E-02  3.000E+00  6.750E+02  0.000E+00  0.000E+00
   2   36   55    11     1    9.7137E+03 -7.6391E+01   9.7908E+03  7.831E-01  0.000E+00  0.000E+00  1.97604E+03  4.358E-02  3.000E+00  6.750E+02  0.000E+00  0.000E+00
   2   36   56    11     2    9.7908E+03 -1.3010E+02   9.9217E+03  7.831E-01  0.000E+00  0.000E+00  1.97507E+03  7.366E-02  3.000E+00  1.630E+03  0.000E+00  0.000E+00
   2   37   57    11     3    9.9217E+03 -1.3149E+02   1.0054E+04  7.831E-01  0.000E+00  0.000E+00  1.97307E+03  7.425E-02  3.000E+00  1.630E+03  0.000E+00  0.000E+00
   2   37   58    11     4    1.0054E+04 -8.0727E+01   1.0135E+04  7.831E-01  0.000E+00  0.000E+00  1.97210E+03  9.820E-02  3.000E+00  1.350E+03  0.000E+00  0.000E+00
   2   37   59    11     5    1.0135E+04  2.9058E+01   1.0107E+04  7.831E-01  0.000E+00  0.000E+00  1.97208E+03  7.989E-02  3.000E+00  1.350E+03  0.000E+00  0.000E+00
   2   37   60    11     6    1.0107E+04 -5.2513E+01   1.0161E+04  7.831E-01  0.000E+00  0.000E+00  1.97006E+03  6.426E-02  3.000E+00  1.630E+03  0.000E+00  0.000E+00
   2   38   61    11     7    1.0161E+04 -1.5941E+02   1.0321E+04  7.831E-01  0.000E+00  0.000E+00  1.96706E+03  5.846E-02  3.000E+00  1.630E+03  0.000E+00  0.000E+00
   2   38   62    11     8    1.0321E+04 -1.0539E+02   1.0427E+04  7.831E-01  0.000E+00  0.000E+00  1.96305E+03  5.349E-02  3.000E+00  6.750E+02  0.000E+00  0.000E+00
   2   51   11    12     1    0.0000E+00 -4.2314E+02   4.2420E+02  1.057E+00  0.000E+00  0.000E+00  2.38700E+03  4.246E-03  3.000E+00  1.909E+03  0.000E+00  0.000E+00
   2   50   12    12     2    4.2420E+02 -6.3601E+01   4.8885E+02  1.057E+00  0.000E+00  0.000E+00  2.37501E+03  6.414E-03  3.000E+00  1.630E+03  0.000E+00  0.000E+00
   2   49   12    12     3    4.8885E+02 -3.9561E+02   8.8552E+02  1.057E+00  0.000E+00  0.000E+00  2.36501E+03  8.566E-03  3.000E+00  1.630E+03  0.000E+00  0.000E+00
   2   48   13    12     4    8.8552E+02 -1.9110E+02   1.0777E+03  1.057E+00  0.000E+00  0.000E+00  2.35601E+03  1.139E-02  3.000E+00  1.630E+03  0.000E+00  0.000E+00
   2   48   14    12     5    1.0777E+03 -1.7430E+02   1.2530E+03  1.057E+00  0.000E+00  0.000E+00  2.35001E+03  1.238E-02  3.000E+00  1.630E+03  0.000E+00  0.000E+00
   2   47   15    12     6    1.2530E+03 -1.7705E+02   1.4311E+03  1.057E+00  0.000E+00  0.000E+00  2.34001E+03  1.374E-02  3.000E+00  1.630E+03  0.000E+00  0.000E+00
   2   47   16    12     7    1.4311E+03 -1.4470E+02   1.5769E+03  1.057E+00  0.000E+00  0.000E+00  2.33502E+03  1.615E-02  3.000E+00  1.630E+03  0.000E+00  0.000E+00
   2   46   17    12     8    1.5769E+03  6.1135E+01   1.5168E+03  1.057E+00  0.000E+00  0.000E+00  2.32902E+03  1.528E-02  3.000E+00  1.630E+03  0.000E+00  0.000E+00
   2   46   18    12     9    1.5168E+03  1.4598E+02   1.3719E+03  1.057E+00  0.000E+00  0.000E+00  2.32101E+03  1.194E-02  3.000E+00  1.350E+03  0.000E+00  0.000E+00
   2   46   19    12    10    1.3719E+03 -4.5621E+02   1.8292E+03  1.057E+00  0.000E+00  0.000E+00  2.30601E+03  1.443E-02  3.000E+00  1.350E+03  0.000E+00  0.000E+00
   2   46   20    12    11    1.8292E+03  7.6019E+02   1.0700E+03  1.057E+00  0.000E+00  0.000E+00  2.30601E+03  1.146E-02  3.000E+00  1.630E+03  0.000E+00  0.000E+00
   2   45   21    12    12    1.0700E+03 -3.2181E+02   1.3929E+03  1.057E+00  0.000E+00  0.000E+00  2.27401E+03  9.217E-03  3.000E+00  1.909E+03  0.000E+00  0.000E+00
   2   44   22    12    13    1.3929E+03 -1.7770E+02   1.5717E+03  1.057E+00  0.000E+00  0.000E+00  2.25001E+03  1.115E-02  3.000E+00  1.909E+03  0.000E+00  0.000E+00
   2   43   23    12    14    1.5717E+03  1.3893E+02   1.4338E+03  1.057E+00  0.000E+00  0.000E+00  2.23101E+03  1.132E-02  3.000E+00  1.909E+03  0.000E+00  0.000E+00
   2   42   24    12    15    1.4338E+03 -8.3676E+01   1.5185E+03  1.057E+00  0.000E+00  0.000E+00  2.20801E+03  1.170E-02  3.000E+00  1.630E+03  0.000E+00  0.000E+00
   2   42   25    12    16    1.5185E+03 -2.2313E+01   1.5419E+03  1.057E+00  0.000E+00  0.000E+00  2.20001E+03  1.289E-02  3.000E+00  1.350E+03  0.000E+00  0.000E+00
   2   42   26    12    17    1.5419E+03  1.1771E+02   1.4252E+03  1.057E+00  0.000E+00  0.000E+00  2.18801E+03  1.120E-02  3.000E+00  1.350E+03  0.000E+00  0.000E+00
   2   42   27    12    18    1.4252E+03 -2.6661E+02   1.6929E+03  1.057E+00  0.000E+00  0.000E+00  2.17001E+03  1.166E-02  3.000E+00  1.350E+03  0.000E+00  0.000E+00
   2   42   28    12    19    1.6929E+03 -9.6620E+01   1.7906E+03  1.057E+00  0.000E+00  0.000E+00  2.15901E+03  1.332E-02  3.000E+00  1.630E+03  0.000E+00  0.000E+00
   2   41   29    12    20    1.7906E+03  1.4527E+02   1.6464E+03  1.057E+00  0.000E+00  0.000E+00  2.14201E+03  1.331E-02  3.000E+00  1.909E+03  0.000E+00  0.000E+00
   2   40   30    12    21    1.6464E+03  6.6537E+01   1.5809E+03  1.057E+00  0.000E+00  0.000E+00  2.12701E+03  1.349E-02  3.000E+00  1.909E+03  0.000E+00  0.000E+00
   2   39   31    12    22    1.5809E+03  1.1455E+02   1.4674E+03  1.057E+00  0.000E+00  0.000E+00  2.11501E+03  1.351E-02  3.000E+00  1.909E+03  1.152E+02 -6.192E-01
   2   38   32    12    23    1.4674E+03  1.1455E+02   1.3539E+03  1.057E+00  0.000E+00  0.000E+00  2.10301E+03  1.259E-02  3.000E+00  1.909E+03  1.171E+02 -2.590E+00
   2   37   33    12    24    1.3539E+03  2.5535E+01   1.3294E+03  1.057E+00  0.000E+00  0.000E+00  2.08901E+03  1.221E-02  3.000E+00  1.909E+03  0.000E+00  0.000E+00
   2   36   34    12    25    1.3294E+03 -5.7127E+01   1.3876E+03  1.057E+00  0.000E+00  0.000E+00  2.07701E+03  1.051E-02  3.000E+00  9.546E+02  0.000E+00  0.000E+00
   2   38   62    13     1    1.0625E+04 -1.1358E+02   1.0739E+04  7.332E-01  0.000E+00  0.000E+00  1.96304E+03  4.135E-02  3.000E+00  6.750E+02  0.000E+00  0.000E+00
   2   38   63    13     2    1.0739E+04  1.3548E+01   1.0727E+04  7.332E-01  0.000E+00  0.000E+00  1.96570E+03  2.701E+00  3.000E+00  1.350E+03  0.000E+00  0.000E+00
   2   38   64    13     3    1.0727E+04  4.6428E+01   1.0681E+04  7.332E-01  0.000E+00  0.000E+00  1.96570E+03  2.696E+00  3.000E+00  1.350E+03  0.000E+00  0.000E+00
   2   38   65    13     4    1.0681E+04 -3.0503E+01   1.0712E+04  7.332E-01  0.000E+00  0.000E+00  1.96307E+03  7.312E-02  3.000E+00  6.750E+02  0.000E+00  0.000E+00
   2   46   61    14     1    0.0000E+00  7.8792E-01   0.0000E+00  7.879E-01  0.000E+00  0.000E+00  2.01700E+03  5.665E-06  3.000E+00  1.350E+03  0.000E+00  0.000E+00
   2   45   61    14     2    0.0000E+00  7.8792E-01   0.0000E+00  7.879E-01  0.000E+00  0.000E+00  2.01000E+03  6.090E-06  3.000E+00  1.350E+03  8.064E-01 -1.850E-02
   2   44   61    14     3    0.0000E+00  7.8792E-01   0.0000E+00  7.879E-01  0.000E+00  0.000E+00  2.00600E+03  6.090E-06  3.000E+00  1.350E+03  0.000E+00  7.879E-01
   2   43   61    14     4    0.0000E+00  7.8792E-01   0.0000E+00  7.879E-01  0.000E+00  0.000E+00  1.99900E+03  5.792E-06  3.000E+00  1.350E+03  0.000E+00  7.879E-01
   2   42   61    14     5    0.0000E+00  7.8792E-01   0.0000E+00  7.879E-01  0.000E+00  0.000E+00  1.99300E+03  5.665E-06  3.000E+00  1.350E+03  0.000E+00  7.879E-01
   2   41   61    14     6    0.0000E+00  7.8792E-01   0.0000E+00  7.879E-01  0.000E+00  0.000E+00  1.98500E+03  5.549E-06  3.000E+00  1.350E+03  0.000E+00  0.000E+00
   2   40   61    14     7    0.0000E+00  7.8792E-01   0.0000E+00  7.879E-01  0.000E+00  0.000E+00  1.97800E+03  5.933E-06  3.000E+00  1.350E+03  0.000E+00  0.000E+00
   2   39   61    14     8    0.0000E+00  7.8792E-01   0.0000E+00  7.879E-01  0.000E+00  0.000E+00  1.97300E+03  5.871E-06  3.000E+00  1.630E+03  5.563E-01  2.316E-01
   2   38   62    14     9    0.0000E+00 -1.9747E+02   1.9825E+02  7.879E-01  0.000E+00  0.000E+00  1.96300E+03  2.768E-03  3.000E+00  9.546E+02  0.000E+00  0.000E+00
   2   39   70    15     1    1.1090E+04  9.8936E-01   1.1089E+04  3.015E-01  0.000E+00  0.000E+00  1.94604E+03  4.110E-02  3.000E+00  6.750E+02  0.000E+00  0.000E+00
   2   40   75    16     1    1.5000E+04 -3.3063E+01   1.5034E+04  3.353E-01  0.000E+00  0.000E+00  1.93406E+03  6.246E-02  3.000E+00  6.750E+02  0.000E+00  0.000E+00
   2   40   76    16     2    1.5034E+04  0.0000E+00   1.5034E+04  3.353E-01  0.000E+00  0.000E+00  1.93309E+03  8.969E-02  3.000E+00  0.000E+00  0.000E+00  0.000E+00
   2   55   73    17     1    0.0000E+00  3.5804E-01   0.0000E+00  3.580E-01  0.000E+00  0.000E+00  2.04100E+03  6.082E-06  3.000E+00  1.350E+03  0.000E+00  0.000E+00
   2   54   73    17     2    0.0000E+00  3.5804E-01   0.0000E+00  3.580E-01  0.000E+00  0.000E+00  2.02900E+03  6.004E-06  3.000E+00  1.350E+03  0.000E+00  3.580E-01
   2   53   73    17     3    0.0000E+00  3.5804E-01   0.0000E+00  3.580E-01  0.000E+00  0.000E+00  2.01700E+03  6.440E-06  3.000E+00  1.350E+03  0.000E+00  3.580E-01
   2   52   73    17     4    0.0000E+00  3.5804E-01   0.0000E+00  3.580E-01  0.000E+00  0.000E+00  2.01000E+03  6.814E-06  3.000E+00  1.630E+03  0.000E+00  3.580E-01
   2   51   72    17     5    0.0000E+00  3.5804E-01   0.0000E+00  3.580E-01  0.000E+00  0.000E+00  1.99800E+03  7.046E-06  3.000E+00  1.630E+03  0.000E+00  3.580E-01
   2   50   72    17     6    0.0000E+00 -5.6882E+01   5.7240E+01  3.580E-01  0.000E+00  0.000E+00  1.97500E+03  1.380E-03  3.000E+00  1.350E+03  0.000E+00  0.000E+00
   2   49   72    17     7    5.7240E+01  0.0000E+00   5.7598E+01  3.580E-01  0.000E+00  0.000E+00  1.95600E+03  2.007E-03  3.000E+00  0.000E+00  0.000E+00  0.000E+00
   2   48   72    17     8    5.7598E+01  0.0000E+00   5.7956E+01  3.580E-01  0.000E+00  0.000E+00  1.95200E+03  2.009E-03  3.000E+00  0.000E+00  0.000E+00  0.000E+00
   2   47   72    17     9    5.7956E+01  0.0000E+00   5.8314E+01  3.580E-01  0.000E+00  0.000E+00  1.95000E+03  2.062E-03  3.000E+00  0.000E+00  0.000E+00  0.000E+00
   2   46   72    17    10    5.8314E+01  0.0000E+00   5.8672E+01  3.580E-01  0.000E+00  0.000E+00  1.94800E+03  2.117E-03  3.000E+00  0.000E+00  0.000E+00  0.000E+00
   2   45   72    17    11    5.8672E+01  0.0000E+00   5.9030E+01  3.580E-01  0.000E+00  0.000E+00  1.94400E+03  2.150E-03  3.000E+00  0.000E+00  0.000E+00  0.000E+00
   2   44   73    17    12    5.9030E+01  0.0000E+00   5.9388E+01  3.580E-01  0.000E+00  0.000E+00  1.94200E+03  2.198E-03  3.000E+00  0.000E+00  0.000E+00  0.000E+00
   2   43   73    17    13    5.9388E+01  0.0000E+00   5.9746E+01  3.580E-01  0.000E+00  0.000E+00  1.94200E+03  2.414E-03  3.000E+00  0.000E+00  0.000E+00  0.000E+00
   2   42   73    17    14    5.9746E+01  0.0000E+00   6.0104E+01  3.580E-01  0.000E+00  0.000E+00  1.94100E+03  2.480E-03  3.000E+00  0.000E+00  0.000E+00  0.000E+00
   2   34   45    18     1    7.9810E+03 -3.6652E+01   8.0183E+03  6.026E-01  0.000E+00  0.000E+00  2.01795E+03  4.843E-02  3.000E+00  1.630E+03  0.000E+00  0.000E+00
   2   34   46    18     2    8.0183E+03 -7.8851E+01   8.0977E+03  6.026E-01  0.000E+00  0.000E+00  2.01104E+03  4.437E-02  3.000E+00  1.350E+03  0.000E+00  0.000E+00
   2   34   47    18     3    8.0977E+03  5.5848E+00   8.0927E+03  6.026E-01  0.000E+00  0.000E+00  2.00704E+03  3.502E-02  3.000E+00  6.750E+02  0.000E+00  0.000E+00
   2   41   74    19     1    7.0175E+03 -2.1337E+02   7.2313E+03  4.053E-01  0.000E+00  0.000E+00  1.93804E+03  4.430E-02  3.000E+00  1.909E+03  0.000E+00  0.000E+00
   2   40   75    19     2    7.2313E+03 -6.3595E+01   7.2953E+03  4.053E-01  0.000E+00  0.000E+00  1.93404E+03  4.482E-02  3.000E+00  9.546E+02  0.000E+00  0.000E+00
   2   39   66    20     1    0.0000E+00  6.2242E-01   0.0000E+00  6.224E-01  0.000E+00  0.000E+00  1.96250E+03  8.704E-06  1.500E+00  8.148E+02  0.000E+00  6.224E-01
   2   39   67    20     2    0.0000E+00  6.2242E-01   0.0000E+00  6.224E-01  0.000E+00  0.000E+00  1.96225E+03  5.064E-06  1.500E+00  6.750E+02  0.000E+00  6.224E-01
   2   40   68    20     3    0.0000E+00  6.2242E-01   0.0000E+00  6.224E-01  0.000E+00  0.000E+00  1.96200E+03  5.618E-06  1.500E+00  9.546E+02  0.000E+00  6.224E-01
   2   41   69    20     4    0.0000E+00  6.2242E-01   0.0000E+00  6.224E-01  0.000E+00  0.000E+00  1.96175E+03  5.358E-06  1.500E+00  8.148E+02  0.000E+00  6.224E-01
   2   42   69    20     5    0.0000E+00  6.2242E-01   0.0000E+00  6.224E-01  0.000E+00  0.000E+00  1.96150E+03  5.358E-06  1.500E+00  8.148E+02  0.000E+00  6.224E-01
   2   43   70    20     6    0.0000E+00  6.2242E-01   0.0000E+00  6.224E-01  0.000E+00  0.000E+00  1.96125E+03  5.358E-06  1.500E+00  8.148E+02  0.000E+00  6.224E-01
   2   38   66    21     1    1.0712E+04 -7.9108E+01   1.0792E+04  5.371E-01  0.000E+00  0.000E+00  1.96006E+03  6.293E-02  3.000E+00  1.350E+03  0.000E+00  0.000E+00
   2   38   67    21     2    1.0792E+04 -2.7525E+00   1.0795E+04  5.371E-01  0.000E+00  0.000E+00  1.95806E+03  6.033E-02  3.000E+00  1.630E+03  0.000E+00  0.000E+00
   2   39   68    21     3    1.0795E+04 -2.9911E+01   1.0826E+04  5.371E-01  0.000E+00  0.000E+00  1.95305E+03  5.426E-02  3.000E+00  1.630E+03  0.000E+00  0.000E+00
   2   39   69    21     4    1.0826E+04 -2.3161E+02   1.1058E+04  5.371E-01  0.000E+00  0.000E+00  1.94806E+03  5.749E-02  3.000E+00  1.350E+03  0.000E+00  0.000E+00
   2   39   70    21     5    1.1058E+04  6.4596E+00   1.1052E+04  5.371E-01  0.000E+00  0.000E+00  1.94605E+03  4.921E-02  3.000E+00  6.750E+02  0.000E+00  0.000E+00
   2   38   71    22     1    4.0000E+03 -5.9179E+01   4.0601E+03  9.251E-01  0.000E+00  0.000E+00  1.94556E+03  5.989E-02  3.000E+00  3.259E+02  0.000E+00  0.000E+00
   2   38   72    22     2    4.0601E+03 -4.4307E+01   4.1053E+03  9.251E-01  0.000E+00  0.000E+00  1.94506E+03  6.036E-02  3.000E+00  3.259E+02  0.000E+00  0.000E+00
   2   39   73    22     3    4.1053E+03  1.0399E+02   4.0023E+03  9.251E-01  0.000E+00  0.000E+00  1.94456E+03  6.010E-02  3.000E+00  3.259E+02  0.000E+00  0.000E+00
   2   39   74    22     4    4.0023E+03  8.1000E+01   3.9222E+03  9.251E-01  0.000E+00  0.000E+00  1.94406E+03  5.603E-02  3.000E+00  2.700E+02  8.335E+01 -2.351E+00
   2   39   75    22     5    3.9222E+03  8.1000E+01   3.8421E+03  9.251E-01  0.000E+00  0.000E+00  1.94356E+03  5.535E-02  3.000E+00  2.700E+02  8.338E+01 -2.375E+00
   2   39   76    22     6    3.8421E+03  0.0000E+00   3.8430E+03  9.251E-01  0.000E+00  0.000E+00  1.94306E+03  5.501E-02  3.000E+00  0.000E+00  0.000E+00  0.000E+00
   2   39   71    23     1    7.0890E+03 -2.0922E+02   7.2988E+03  5.446E-01  0.000E+00  0.000E+00  1.94205E+03  5.232E-02  3.000E+00  1.630E+03  0.000E+00  0.000E+00
   2   40   72    23     2    7.2988E+03 -9.3735E+01   7.3931E+03  5.446E-01  0.000E+00  0.000E+00  1.94106E+03  5.665E-02  3.000E+00  1.630E+03  0.000E+00  0.000E+00
   2   40   73    23     3    7.3931E+03 -1.8367E+02   7.5773E+03  5.446E-01  0.000E+00  0.000E+00  1.93805E+03  5.064E-02  3.000E+00  1.350E+03  0.000E+00  0.000E+00
   2   40   74    23     4    7.5773E+03 -8.4153E+01   7.6620E+03  5.446E-01  0.000E+00  0.000E+00  1.93605E+03  5.472E-02  3.000E+00  1.350E+03  0.000E+00  0.000E+00
   2   40   75    23     5    7.6620E+03 -4.2350E+01   7.7049E+03  5.446E-01  0.000E+00  0.000E+00  1.93405E+03  4.870E-02  3.000E+00  6.750E+02  0.000E+00  0.000E+00



1
  VOLUMETRIC BUDGET FOR UNSATURATED ZONE BENEATH STREAMS AT END OF TIME STEP    14 STRESS PERIOD   2
  ------------------------------------------------------------------------------------------------

    CUMULATIVE VOLUMES             L**3    RATES FOR THIS TIME STEP         L**3/T
    ------------------                     ------------------------


          STREAM LOSS =        13901.0488            STREAM LOSS =         1231.5594
    CHANGE IN STORAGE =         1635.6018      CHANGE IN STORAGE =          -10.9168
       RECHARGE TO GW =        12265.4473         RECHARGE TO GW =         1242.4760

             TOTAL IN =        13901.0488               TOTAL IN =         1242.4762

            TOTAL OUT =        13901.0488              TOTAL OUT =         1242.4760

             IN - OUT =            0.0000               IN - OUT =        2.4414E-04

  PERCENT DISCREPANCY =            0.00      PERCENT DISCREPANCY =             0.00



 ***WARNING***NUZTOP IS 3 AND ALL LAYERS  IN ROW           39  AND COLUMN 
          76  ARE INACTIVE.
 UNSATURATED FLOW WILL NOT BE ADDED TO ANY LAYER-- SOME WATER MAY FLOW PAST
  LOWEST LAYER
 ***WARNING***NUZTOP IS 3 AND ALL LAYERS  IN ROW           40  AND COLUMN 
          76  ARE INACTIVE.
 UNSATURATED FLOW WILL NOT BE ADDED TO ANY LAYER-- SOME WATER MAY FLOW PAST
  LOWEST LAYER


UNSATURATED ZONE PACKAGE VOLUMETRIC BUDGET FOR  TIME STEP    14 STRESS PERIOD    2
  ------------------------------------------------------------------------------



     CUMULATIVE VOLUMES      L**3       RATES FOR THIS TIME STEP      L**3/T
     ------------------                 ------------------------

           IN:                                      IN:
           ---                                      ---
        INFILTRATION =       26039.6903          INFILTRATION =       0.0000E+00

          OUT:                                     OUT:
          ----                                     ----
              UZF ET =      256573.2739                UZF ET =        1658.7555
        UZF RECHARGE =      398682.3723          UZF RECHARGE =       24468.5267

            IN - OUT =     -629215.9559              IN - OUT =      -26127.2822

          STORAGE:                                 STORAGE:
          --------                                 --------
      STORAGE CHANGE =     -628123.0967        STORAGE CHANGE =      -26123.7857

 PERCENT DISCREPANCY IS DIFFERENCE BETWEEN IN-OUT MINUS CHANGE IN STORAGE
 DIVIDED BY THE AVERAGE OF IN AND OUT TIMES 100

 PERCENT DISCREPANCY =          -0.04     PERCENT DISCREPANCY =          -0.01






1
  VOLUMETRIC BUDGET FOR ENTIRE MODEL AT END OF TIME STEP   14, STRESS PERIOD   2
  ------------------------------------------------------------------------------

     CUMULATIVE VOLUMES      L**3       RATES FOR THIS TIME STEP      L**3/T
     ------------------                 ------------------------

           IN:                                      IN:
           ---                                      ---
             STORAGE     =        5195.2686               STORAGE     =         633.8275
       CONSTANT HEAD     =          17.5128         CONSTANT HEAD     =           0.0000
      STREAM LEAKAGE     =       60814.4453        STREAM LEAKAGE     =        4107.7207
       LAKE  SEEPAGE     =        4182.4082         LAKE  SEEPAGE     =         230.9744
        UZF RECHARGE     =      398695.9688          UZF RECHARGE     =       24468.5312
               GW ET     =           0.0000                 GW ET     =           0.0000
     SURFACE LEAKAGE     =           0.0000       SURFACE LEAKAGE     =           0.0000

                TOTAL IN =      468905.5938                  TOTAL IN =       29441.0547

          OUT:                                     OUT:
          ----                                     ----
             STORAGE     =      198346.6250               STORAGE     =       12882.5371
       CONSTANT HEAD     =         996.3398         CONSTANT HEAD     =          72.7541
      STREAM LEAKAGE     =      177205.9375        STREAM LEAKAGE     =       13119.6484
       LAKE  SEEPAGE     =       39786.7852         LAKE  SEEPAGE     =        2673.7202
        UZF RECHARGE     =           0.0000          UZF RECHARGE     =           0.0000
               GW ET     =       48058.4570                 GW ET     =         227.8134
     SURFACE LEAKAGE     =        5458.1431       SURFACE LEAKAGE     =         530.4884

               TOTAL OUT =      469852.2812                 TOTAL OUT =       29506.9609

                IN - OUT =        -946.6875                  IN - OUT =         -65.9062

     PERCENT DISCREPANCY =          -0.20         PERCENT DISCREPANCY =          -0.22






         TIME SUMMARY AT END OF TIME STEP   14 IN STRESS PERIOD    2
                    SECONDS     MINUTES      HOURS       DAYS        YEARS
                    -----------------------------------------------------------
   TIME STEP LENGTH  86400.      1440.0      24.000      1.0000     2.73785E-03
 STRESS PERIOD TIME 1.20960E+06  20160.      336.00      14.000     3.83299E-02
         TOTAL TIME 1.29600E+06  21600.      360.00      15.000     4.10678E-02
1
                                                   Max.-Head-Change                         Max.-Flux-Residual
  Residual-Control   Outer-Iter.   Inner-Iter.     Column Row Layer    Maximum-Head-Change  Column Row Layer    Maximum-Flux-Residual          L2-NORM 
          0                 1           4            53   62     2       0.1780296378E+01      69   38    2         0.1296537623E+03      0.4909280184E+03
          0                 2           5             3   57     2       0.1593879163E+01      37   62    2         0.3598998797E+02      0.1022225513E+03
          0                 3           4            74   39     2       0.2387032803E+00      74   39    2         0.2033447112E+03      0.2046769323E+03
          0                 4           2            74   39     2       0.1547846775E-01      74   39    2         0.1317711090E+02      0.1497049645E+02
          0                 5           2            74   39     3       0.3133654220E-02      74   39    2         0.8546125148E+00      0.2786286950E+01
          0                 6           2            74   39     3       0.8335351904E-03       3   59    2         0.2950371120E+00      0.1101279695E+01
          0                 7           1             3   56     2       0.2655375848E-03       3   56    2         0.1575730263E+00      0.4884570983E+00
          0                 8           1             3   56     2       0.1438725250E-03       3   56    2         0.8536710508E-01      0.2276481783E+00
          0                 9           1             3   56     2       0.7792250073E-04       3   56    2         0.4624161637E-01      0.1102949301E+00

    ------------------------------------------------
       NWT REQUIRED            9 OUTER ITERATIONS 
       AND A TOTAL OF         22 INNER ITERATIONS.
    ------------------------------------------------
                                                   Max.-Head-Change                         Max.-Flux-Residual
  Residual-Control   Outer-Iter.   Inner-Iter.     Column Row Layer    Maximum-Head-Change  Column Row Layer    Maximum-Flux-Residual          L2-NORM 
          0                 1           3            63   38     2      -0.1583536772E+00      63   38    2        -0.2044967326E+03      0.2652750088E+03
          0                 2           3            64   38     2      -0.4096712153E-01      64   38    2        -0.5318705924E+02      0.5981590601E+02
          0                 3           2            64   38     2      -0.8112858448E-02      64   38    2        -0.1045024091E+02      0.1751239756E+02
          0                 4           2            69   30     2      -0.2752921333E-02      69   30    2        -0.3959619227E+01      0.5743348615E+01
          0                 5           2            69   30     2      -0.1654615247E-02      69   30    2        -0.2379118834E+01      0.2792901942E+01
          0                 6           1            69   30     2      -0.8717016649E-03      69   30    2        -0.1253106787E+01      0.1383562266E+01
          0                 7           1            69   30     2      -0.4249893735E-03      69   30    2        -0.6107490331E+00      0.6556850803E+00
          0                 8           1            69   30     2      -0.1974622749E-03      69   30    2        -0.2836996420E+00      0.3001027263E+00
          0                 9           1            69   30     2      -0.8890249030E-04      69   30    2        -0.1277000969E+00      0.1339401116E+00

    ------------------------------------------------
       NWT REQUIRED            9 OUTER ITERATIONS 
       AND A TOTAL OF         16 INNER ITERATIONS.
    ------------------------------------------------
                                                   Max.-Head-Change                         Max.-Flux-Residual
  Residual-Control   Outer-Iter.   Inner-Iter.     Column Row Layer    Maximum-Head-Change  Column Row Layer    Maximum-Flux-Residual          L2-NORM 
          0                 1           2            69   30     2       0.3694800589E-02      69   30    2         0.4348662256E+01      0.8907820005E+01
          0                 2           2            69   30     2       0.6012061667E-02      69   30    2         0.7074860983E+01      0.1190531126E+02
          0                 3           2            63   38     2      -0.5402338627E-02      63   38    2        -0.8539705811E+01      0.1519972768E+02
          0                 4           2            69   30     2      -0.2753131549E-02      69   30    2        -0.3959937215E+01      0.6522644476E+01
          0                 5           2            69   30     2      -0.1654666322E-02      69   30    2        -0.2379198144E+01      0.2996770010E+01
          0                 6           1            69   30     2      -0.8717110498E-03      69   30    2        -0.1253118803E+01      0.1413331414E+01
          0                 7           1            69   30     2      -0.4249857433E-03      69   30    2        -0.6107522374E+00      0.6593437825E+00
          0                 8           1            69   30     2      -0.1974620819E-03      69   30    2        -0.2837064407E+00      0.3004372659E+00
          0                 9           1            69   30     2      -0.8890437001E-04      69   30    2        -0.1277071100E+00      0.1339381536E+00

    ------------------------------------------------
       NWT REQUIRED            9 OUTER ITERATIONS 
       AND A TOTAL OF         14 INNER ITERATIONS.
    ------------------------------------------------
                                                   Max.-Head-Change                         Max.-Flux-Residual
  Residual-Control   Outer-Iter.   Inner-Iter.     Column Row Layer    Maximum-Head-Change  Column Row Layer    Maximum-Flux-Residual          L2-NORM 
          0                 1           2            69   30     2       0.3694791790E-02      63   38    2         0.4579520000E+01      0.9230208854E+01
          0                 2           2            69   30     2       0.6012063629E-02      69   30    2         0.7074861100E+01      0.1197063073E+02
          0                 3           2            63   38     2      -0.5403182025E-02      63   38    2        -0.8541216649E+01      0.1519756908E+02
          0                 4           2            69   30     2      -0.2753121734E-02      69   30    2        -0.3959923899E+01      0.6521852011E+01
          0                 5           2            69   30     2      -0.1654663100E-02      69   30    2        -0.2379193724E+01      0.2996307394E+01
          0                 6           1            69   30     2      -0.8717103643E-03      69   30    2        -0.1253117847E+01      0.1413692518E+01
          0                 7           1            69   30     2      -0.4249881194E-03      69   30    2        -0.6107519853E+00      0.6594084358E+00
          0                 8           1            69   30     2      -0.1974615306E-03      69   30    2        -0.2837039034E+00      0.3004444696E+00
          0                 9           1            69   30     2      -0.8890339935E-04      69   30    2        -0.1277051081E+00      0.1339388240E+00

    ------------------------------------------------
       NWT REQUIRED            9 OUTER ITERATIONS 
       AND A TOTAL OF         14 INNER ITERATIONS.
    ------------------------------------------------

 OUTPUT CONTROL FOR STRESS PERIOD    2   TIME STEP   15
    PRINT BUDGET



 STREAM LISTING     PERIOD      2   STEP       15

 LAYER ROW COL. STREAM  RCH.   FLOW INTO    STREAM     FLOW OUT OF   OVRLND.    DIRECT     STREAM      STREAM      STREAM     STREAM  STREAMBED   FLOW TO   CHNG. UNSAT. 
                SEG.NO.  NO.   STRM. RCH.    LOSS       STRM. RCH.   RUNOFF     PRECIP       ET         HEAD        DEPTH      WIDTH  CONDCTNC.   WAT. TAB.

   2   18   62     1     1    0.0000E+00  8.1367E-01   0.0000E+00  8.137E-01  0.000E+00  0.000E+00  2.07300E+03  5.758E-06  3.000E+00  1.909E+03  0.000E+00  0.000E+00
   2   19   63     1     2    0.0000E+00 -5.8449E+01   5.9263E+01  8.137E-01  0.000E+00  0.000E+00  2.06300E+03  1.362E-03  3.000E+00  1.909E+03  0.000E+00  0.000E+00
   2   20   64     1     3    5.9263E+01 -8.4310E+01   1.4439E+02  8.137E-01  0.000E+00  0.000E+00  2.05400E+03  3.127E-03  3.000E+00  1.630E+03  0.000E+00  0.000E+00
   2   21   64     1     4    1.4439E+02 -8.7478E+01   2.3268E+02  8.137E-01  0.000E+00  0.000E+00  2.05101E+03  5.571E-03  3.000E+00  1.630E+03  0.000E+00  0.000E+00
   2   22   65     1     5    2.3268E+02 -1.3564E+01   2.4706E+02  8.137E-01  0.000E+00  0.000E+00  2.04801E+03  5.483E-03  3.000E+00  9.546E+02  0.000E+00  0.000E+00
   2   20   66     2     1    0.0000E+00 -4.6522E+01   4.7301E+01  7.793E-01  0.000E+00  0.000E+00  2.05300E+03  1.681E-03  3.000E+00  1.909E+03  0.000E+00  0.000E+00
   2   21   65     2     2    4.7301E+01  4.8081E+01   0.0000E+00  7.793E-01  0.000E+00  0.000E+00  2.05100E+03  5.804E-04  3.000E+00  1.630E+03  0.000E+00  0.000E+00
   2   22   65     2     3    0.0000E+00 -1.2897E+01   1.3677E+01  7.793E-01  0.000E+00  0.000E+00  2.04800E+03  5.846E-04  3.000E+00  6.750E+02  0.000E+00  0.000E+00
   2   22   65     3     1    2.6073E+02 -9.7425E+00   2.7139E+02  9.128E-01  0.000E+00  0.000E+00  2.04801E+03  5.259E-03  3.000E+00  6.750E+02  0.000E+00  0.000E+00
   2   23   65     3     2    2.7139E+02 -9.0868E+01   3.6317E+02  9.128E-01  0.000E+00  0.000E+00  2.04501E+03  9.373E-03  3.000E+00  1.630E+03  0.000E+00  0.000E+00
   2   24   66     3     3    3.6317E+02 -2.1521E+01   3.8560E+02  9.128E-01  0.000E+00  0.000E+00  2.04536E+03  3.606E-01  3.000E+00  1.909E+03  0.000E+00  0.000E+00
   2   25   67     3     4    3.8560E+02  1.6600E+01   3.6992E+02  9.128E-01  0.000E+00  0.000E+00  2.04501E+03  1.091E-02  3.000E+00  1.909E+03  0.000E+00  0.000E+00
   2   26   68     3     5    3.6992E+02  2.7370E+01   3.4346E+02  9.128E-01  0.000E+00  0.000E+00  2.04201E+03  9.224E-03  3.000E+00  1.630E+03  0.000E+00  0.000E+00
   2   27   68     3     6    3.4346E+02  9.7776E+01   2.4660E+02  9.128E-01  0.000E+00  0.000E+00  2.04101E+03  7.289E-03  3.000E+00  1.630E+03  1.028E+02 -5.044E+00
   2   28   69     3     7    2.4660E+02  9.7776E+01   1.4973E+02  9.128E-01  0.000E+00  0.000E+00  2.03600E+03  4.663E-03  3.000E+00  1.630E+03  1.023E+02 -4.517E+00
   2   29   69     3     8    1.4973E+02  8.1000E+01   6.9645E+01  9.128E-01  0.000E+00  0.000E+00  2.02900E+03  3.017E-03  3.000E+00  1.350E+03  8.435E+01 -3.348E+00
   2   30   69     3     9    6.9645E+01  7.0558E+01   0.0000E+00  9.128E-01  0.000E+00  0.000E+00  2.02300E+03  4.981E-04  3.000E+00  1.630E+03  7.177E+01 -1.209E+00
   2   31   70     3    10    0.0000E+00  9.1280E-01   0.0000E+00  9.128E-01  0.000E+00  0.000E+00  2.01100E+03  6.072E-06  3.000E+00  1.630E+03  0.000E+00  0.000E+00
   2   32   70     3    11    0.0000E+00 -7.9601E+01   8.0514E+01  9.128E-01  0.000E+00  0.000E+00  2.00500E+03  1.913E-03  3.000E+00  1.350E+03  0.000E+00  0.000E+00
   2   33   70     3    12    8.0514E+01  8.1427E+01   0.0000E+00  9.128E-01  0.000E+00  0.000E+00  2.00300E+03  5.342E-04  3.000E+00  1.630E+03  8.326E+01 -1.831E+00
   2   34   69     3    13    0.0000E+00 -4.2851E+01   4.3763E+01  9.128E-01  0.000E+00  0.000E+00  1.98600E+03  9.442E-04  3.000E+00  1.630E+03  0.000E+00  0.000E+00
   2   35   69     3    14    4.3763E+01 -1.2793E+02   1.7261E+02  9.128E-01  0.000E+00  0.000E+00  1.97300E+03  2.670E-03  3.000E+00  1.350E+03  0.000E+00  0.000E+00
   2   36   69     3    15    1.7261E+02  8.0795E+00   1.6544E+02  9.128E-01  0.000E+00  0.000E+00  1.96700E+03  3.824E-03  3.000E+00  1.350E+03  0.000E+00  0.000E+00
   2   37   69     3    16    1.6544E+02  2.1872E+01   1.4448E+02  9.128E-01  0.000E+00  0.000E+00  1.95900E+03  3.630E-03  3.000E+00  1.350E+03  0.000E+00  0.000E+00
   2   38   69     3    17    1.4448E+02  1.4524E+02   1.5374E-01  9.128E-01  0.000E+00  0.000E+00  1.95300E+03  2.486E-03  3.000E+00  1.630E+03  0.000E+00  0.000E+00
   2   39   70     3    18    1.5374E-01 -3.5369E+01   3.6436E+01  9.128E-01  0.000E+00  0.000E+00  1.94600E+03  9.760E-04  3.000E+00  9.546E+02  0.000E+00  0.000E+00
   2   25   49     4     1    0.0000E+00 -1.4958E+02   1.5050E+02  9.260E-01  0.000E+00  0.000E+00  2.03500E+03  2.312E-03  3.000E+00  1.909E+03  0.000E+00  0.000E+00
   2   26   50     4     2    1.5050E+02 -1.0276E+02   2.5419E+02  9.260E-01  0.000E+00  0.000E+00  2.02600E+03  4.542E-03  3.000E+00  1.909E+03  0.000E+00  0.000E+00
   2   27   51     4     3    2.5419E+02 -9.1948E+01   3.4706E+02  9.260E-01  0.000E+00  0.000E+00  2.01901E+03  5.987E-03  3.000E+00  1.630E+03  0.000E+00  0.000E+00
   2   28   51     4     4    3.4706E+02 -8.2944E+01   4.3093E+02  9.260E-01  0.000E+00  0.000E+00  2.01401E+03  7.381E-03  3.000E+00  1.630E+03  0.000E+00  0.000E+00
   2   29   52     4     5    4.3093E+02 -7.7403E+01   5.0926E+02  9.260E-01  0.000E+00  0.000E+00  2.00901E+03  8.269E-03  3.000E+00  1.630E+03  0.000E+00  0.000E+00
   2   30   52     4     6    5.0926E+02 -6.1843E+01   5.7203E+02  9.260E-01  0.000E+00  0.000E+00  2.00401E+03  8.499E-03  3.000E+00  1.350E+03  0.000E+00  0.000E+00
   2   31   52     4     7    5.7203E+02 -8.4803E+01   6.5776E+02  9.260E-01  0.000E+00  0.000E+00  1.99901E+03  1.022E-02  3.000E+00  1.350E+03  0.000E+00  0.000E+00
   2   32   52     4     8    6.5776E+02 -4.8290E+00   6.6351E+02  9.260E-01  0.000E+00  0.000E+00  1.99701E+03  1.084E-02  3.000E+00  1.630E+03  0.000E+00  0.000E+00
   2   33   53     4     9    6.6351E+02 -4.4468E+00   6.6888E+02  9.260E-01  0.000E+00  0.000E+00  1.99101E+03  1.069E-02  3.000E+00  1.909E+03  0.000E+00  0.000E+00
   2   34   54     4    10    6.6888E+02  1.2804E+02   5.4177E+02  9.260E-01  0.000E+00  0.000E+00  1.98701E+03  1.042E-02  3.000E+00  1.909E+03  0.000E+00  0.000E+00
   2   35   55     4    11    5.4177E+02  1.6371E+02   3.7898E+02  9.260E-01  0.000E+00  0.000E+00  1.98201E+03  7.936E-03  3.000E+00  1.630E+03  0.000E+00  0.000E+00
   2   36   55     4    12    3.7898E+02 -9.9922E+01   4.7983E+02  9.260E-01  0.000E+00  0.000E+00  1.97601E+03  6.691E-03  3.000E+00  6.750E+02  0.000E+00  0.000E+00
   2   35   37     5     1    5.2662E+03  0.0000E+00   5.2663E+03  6.414E-02  0.000E+00  0.000E+00  2.05403E+03  2.607E-02  3.000E+00  0.000E+00  0.000E+00  0.000E+00
   2   34   38     5     2    5.2663E+03  0.0000E+00   5.2663E+03  6.414E-02  0.000E+00  0.000E+00  2.04003E+03  3.210E-02  3.000E+00  0.000E+00  0.000E+00  0.000E+00
   2   33   39     5     3    5.2663E+03  0.0000E+00   5.2664E+03  6.414E-02  0.000E+00  0.000E+00  2.03204E+03  3.814E-02  3.000E+00  0.000E+00  0.000E+00  0.000E+00
   2   32   40     5     4    5.2664E+03  0.0000E+00   5.2664E+03  6.414E-02  0.000E+00  0.000E+00  2.03004E+03  3.768E-02  3.000E+00  0.000E+00  0.000E+00  0.000E+00
   2   32   41     5     5    5.2664E+03  0.0000E+00   5.2665E+03  6.414E-02  0.000E+00  0.000E+00  2.02603E+03  3.154E-02  3.000E+00  0.000E+00  0.000E+00  0.000E+00
   2   32   42     5     6    5.2665E+03  0.0000E+00   5.2666E+03  6.414E-02  0.000E+00  0.000E+00  2.02204E+03  3.707E-02  3.000E+00  0.000E+00  0.000E+00  0.000E+00
   2   32   43     5     7    5.2666E+03  0.0000E+00   5.2666E+03  6.414E-02  0.000E+00  0.000E+00  2.02004E+03  4.108E-02  3.000E+00  0.000E+00  0.000E+00  0.000E+00
   2   33   44     5     8    5.2666E+03  0.0000E+00   5.2667E+03  6.414E-02  0.000E+00  0.000E+00  2.01904E+03  4.113E-02  3.000E+00  0.000E+00  0.000E+00  0.000E+00
   2   34   47     6     1    6.8348E+03  2.9352E+00   6.8326E+03  7.505E-01  0.000E+00  0.000E+00  2.00703E+03  2.924E-02  3.000E+00  6.750E+02  0.000E+00  0.000E+00
   2   34   48     6     2    6.8326E+03 -1.3552E+02   6.9689E+03  7.505E-01  0.000E+00  0.000E+00  2.00104E+03  3.831E-02  3.000E+00  1.630E+03  0.000E+00  0.000E+00
   2   35   49     6     3    6.9689E+03 -2.7193E+02   7.2416E+03  7.505E-01  0.000E+00  0.000E+00  1.99404E+03  4.099E-02  3.000E+00  1.630E+03  0.000E+00  0.000E+00
   2   35   50     6     4    7.2416E+03 -2.0202E+02   7.4443E+03  7.505E-01  0.000E+00  0.000E+00  1.99005E+03  5.006E-02  3.000E+00  1.350E+03  0.000E+00  0.000E+00
   2   35   51     6     5    7.4443E+03  1.0893E+01   7.4342E+03  7.505E-01  0.000E+00  0.000E+00  1.98905E+03  5.054E-02  3.000E+00  1.630E+03  0.000E+00  0.000E+00
   2   36   52     6     6    7.4342E+03 -1.3250E+02   7.5674E+03  7.505E-01  0.000E+00  0.000E+00  1.98404E+03  4.497E-02  3.000E+00  1.630E+03  0.000E+00  0.000E+00
   2   36   53     6     7    7.5674E+03 -2.6791E+02   7.8361E+03  7.505E-01  0.000E+00  0.000E+00  1.98006E+03  5.828E-02  3.000E+00  1.630E+03  0.000E+00  0.000E+00
   2   37   54     6     8    7.8361E+03 -5.7673E+01   7.8945E+03  7.505E-01  0.000E+00  0.000E+00  1.98006E+03  6.189E-02  3.000E+00  1.909E+03  0.000E+00  0.000E+00
   2   36   55     6     9    7.8945E+03 -1.0254E+02   7.9978E+03  7.505E-01  0.000E+00  0.000E+00  1.97605E+03  4.730E-02  3.000E+00  9.546E+02  0.000E+00  0.000E+00
   2   36   34     7     1    2.1866E+03 -5.3941E+01   2.2410E+03  4.706E-01  0.000E+00  0.000E+00  2.07701E+03  1.409E-02  3.000E+00  9.546E+02  0.000E+00  0.000E+00
   2   35   35     7     2    2.2410E+03 -1.1629E+02   2.3578E+03  4.706E-01  0.000E+00  0.000E+00  2.06702E+03  1.898E-02  3.000E+00  1.630E+03  0.000E+00  0.000E+00
   2   35   36     7     3    2.3578E+03  1.3787E+01   2.3445E+03  4.706E-01  0.000E+00  0.000E+00  2.06202E+03  1.898E-02  3.000E+00  1.350E+03  0.000E+00  0.000E+00
   2   35   37     7     4    2.3445E+03 -6.5360E+01   2.4103E+03  4.706E-01  0.000E+00  0.000E+00  2.05401E+03  1.458E-02  3.000E+00  6.750E+02  0.000E+00  0.000E+00
   2   52   49     8     1    0.0000E+00 -2.0475E+02   2.0548E+02  7.383E-01  0.000E+00  0.000E+00  2.12100E+03  2.872E-03  3.000E+00  1.909E+03  0.000E+00  0.000E+00
   2   51   48     8     2    2.0548E+02 -2.4335E+02   4.4957E+02  7.383E-01  0.000E+00  0.000E+00  2.11701E+03  9.190E-03  3.000E+00  1.909E+03  0.000E+00  0.000E+00
   2   50   47     8     3    4.4957E+02  1.8440E+02   2.6592E+02  7.383E-01  0.000E+00  0.000E+00  2.11701E+03  7.505E-03  3.000E+00  1.630E+03  0.000E+00  0.000E+00
   2   49   47     8     4    2.6592E+02 -2.6843E+02   5.3509E+02  7.383E-01  0.000E+00  0.000E+00  2.10901E+03  7.511E-03  3.000E+00  1.630E+03  0.000E+00  0.000E+00
   2   48   46     8     5    5.3509E+02  8.0073E+00   5.2782E+02  7.383E-01  0.000E+00  0.000E+00  2.10701E+03  1.172E-02  3.000E+00  1.630E+03  0.000E+00  0.000E+00
   2   47   46     8     6    5.2782E+02  1.5408E+02   3.7448E+02  7.383E-01  0.000E+00  0.000E+00  2.10501E+03  1.004E-02  3.000E+00  1.350E+03  0.000E+00  0.000E+00
   2   46   46     8     7    3.7448E+02  8.1000E+01   2.9422E+02  7.383E-01  0.000E+00  0.000E+00  2.10301E+03  7.425E-03  3.000E+00  1.350E+03  8.277E+01 -1.774E+00
   2   45   46     8     8    2.9422E+02  8.1000E+01   2.1395E+02  7.383E-01  0.000E+00  0.000E+00  2.09901E+03  5.115E-03  3.000E+00  1.350E+03  8.346E+01 -2.464E+00
   2   44   46     8     9    2.1395E+02  8.1000E+01   1.3369E+02  7.383E-01  0.000E+00  0.000E+00  2.09100E+03  3.549E-03  3.000E+00  1.350E+03  8.354E+01 -2.544E+00
   2   43   46     8    10    1.3369E+02  8.1000E+01   5.3431E+01  7.383E-01  0.000E+00  0.000E+00  2.08000E+03  2.447E-03  3.000E+00  1.350E+03  8.337E+01 -2.368E+00
   2   42   46     8    11    5.3431E+01  5.4169E+01   0.0000E+00  7.383E-01  0.000E+00  0.000E+00  2.07200E+03  4.116E-04  3.000E+00  1.630E+03  5.524E+01 -1.070E+00
   2   41   45     8    12    0.0000E+00  7.3827E-01   0.0000E+00  7.383E-01  0.000E+00  0.000E+00  2.06000E+03  5.346E-06  3.000E+00  1.630E+03  0.000E+00  0.000E+00
   2   40   45     8    13    0.0000E+00  7.3827E-01   0.0000E+00  7.383E-01  0.000E+00  0.000E+00  2.05400E+03  5.448E-06  3.000E+00  1.350E+03  0.000E+00  7.383E-01
   2   39   45     8    14    0.0000E+00  7.3827E-01   0.0000E+00  7.383E-01  0.000E+00  0.000E+00  2.04600E+03  9.942E-06  3.000E+00  1.350E+03  0.000E+00  7.383E-01
   2   38   45     8    15    0.0000E+00  7.3827E-01   0.0000E+00  7.383E-01  0.000E+00  0.000E+00  2.03500E+03  9.942E-06  3.000E+00  1.350E+03  8.471E-01 -1.088E-01
   2   37   45     8    16    0.0000E+00 -2.8772E+01   2.9511E+01  7.383E-01  0.000E+00  0.000E+00  2.02700E+03  9.370E-04  3.000E+00  1.630E+03  0.000E+00  0.000E+00
   2   36   46     8    17    2.9511E+01  3.0249E+01   0.0000E+00  7.383E-01  0.000E+00  0.000E+00  2.02100E+03  3.291E-04  3.000E+00  1.630E+03  3.092E+01 -6.717E-01
   2   35   46     8    18    0.0000E+00  7.3827E-01   0.0000E+00  7.383E-01  0.000E+00  0.000E+00  2.01400E+03  5.764E-06  3.000E+00  1.630E+03  0.000E+00  0.000E+00
   2   34   47     8    19    0.0000E+00 -2.3074E+01   2.3812E+01  7.383E-01  0.000E+00  0.000E+00  2.00700E+03  7.174E-04  3.000E+00  9.546E+02  0.000E+00  0.000E+00
   2   37   26     9     1    0.0000E+00  7.1463E-01   0.0000E+00  7.146E-01  0.000E+00  0.000E+00  2.14700E+03  8.874E-06  3.000E+00  1.350E+03  0.000E+00  7.146E-01
   2   37   27     9     2    0.0000E+00 -4.6004E+01   4.6718E+01  7.146E-01  0.000E+00  0.000E+00  2.13400E+03  1.019E-03  3.000E+00  1.350E+03  0.000E+00  0.000E+00
   2   37   28     9     3    4.6718E+01 -1.3346E+02   1.8090E+02  7.146E-01  0.000E+00  0.000E+00  2.12500E+03  2.912E-03  3.000E+00  1.630E+03  0.000E+00  0.000E+00
   2   36   29     9     4    1.8090E+02  1.7583E+01   1.6403E+02  7.146E-01  0.000E+00  0.000E+00  2.11500E+03  3.798E-03  3.000E+00  1.630E+03  0.000E+00  0.000E+00
   2   36   30     9     5    1.6403E+02 -7.8571E+01   2.4331E+02  7.146E-01  0.000E+00  0.000E+00  2.10700E+03  4.035E-03  3.000E+00  1.350E+03  0.000E+00  0.000E+00
   2   36   31     9     6    2.4331E+02 -2.0186E+02   4.4589E+02  7.146E-01  0.000E+00  0.000E+00  2.09801E+03  5.634E-03  3.000E+00  1.350E+03  0.000E+00  0.000E+00
   2   36   32     9     7    4.4589E+02 -1.5104E+02   5.9765E+02  7.146E-01  0.000E+00  0.000E+00  2.09101E+03  7.521E-03  3.000E+00  1.350E+03  0.000E+00  0.000E+00
   2   36   33     9     8    5.9765E+02 -1.4651E+02   7.4487E+02  7.146E-01  0.000E+00  0.000E+00  2.08401E+03  8.749E-03  3.000E+00  1.350E+03  0.000E+00  0.000E+00
   2   36   34     9     9    7.4487E+02 -4.2751E+01   7.8834E+02  7.146E-01  0.000E+00  0.000E+00  2.07701E+03  7.260E-03  3.000E+00  6.750E+02  0.000E+00  0.000E+00
   2   58   37    10     1    0.0000E+00 -4.9473E+01   5.0238E+01  7.651E-01  0.000E+00  0.000E+00  2.15000E+03  1.774E-03  3.000E+00  1.350E+03  0.000E+00  0.000E+00
   2   57   37    10     2    5.0238E+01 -8.5875E+01   1.3688E+02  7.651E-01  0.000E+00  0.000E+00  2.14700E+03  3.494E-03  3.000E+00  1.630E+03  0.000E+00  0.000E+00
   2   56   38    10     3    1.3688E+02 -1.4611E+01   1.5225E+02  7.651E-01  0.000E+00  0.000E+00  2.14300E+03  4.207E-03  3.000E+00  1.630E+03  0.000E+00  0.000E+00
   2   55   38    10     4    1.5225E+02 -1.8275E+02   3.3577E+02  7.651E-01  0.000E+00  0.000E+00  2.13801E+03  5.638E-03  3.000E+00  1.350E+03  0.000E+00  0.000E+00
   2   54   38    10     5    3.3577E+02 -1.2548E+02   4.6201E+02  7.651E-01  0.000E+00  0.000E+00  2.13501E+03  8.255E-03  3.000E+00  1.350E+03  0.000E+00  0.000E+00
   2   53   38    10     6    4.6201E+02 -1.2036E+02   5.8313E+02  7.651E-01  0.000E+00  0.000E+00  2.13201E+03  9.707E-03  3.000E+00  1.350E+03  0.000E+00  0.000E+00
   2   52   38    10     7    5.8313E+02 -1.7916E+02   7.6306E+02  7.651E-01  0.000E+00  0.000E+00  2.12901E+03  1.350E-02  3.000E+00  1.630E+03  0.000E+00  0.000E+00
   2   51   39    10     8    7.6306E+02 -1.1312E-01   7.6394E+02  7.651E-01  0.000E+00  0.000E+00  2.12801E+03  1.456E-02  3.000E+00  1.630E+03  0.000E+00  0.000E+00
   2   50   39    10     9    7.6394E+02 -9.3607E+01   8.5831E+02  7.651E-01  0.000E+00  0.000E+00  2.12501E+03  1.277E-02  3.000E+00  1.630E+03  0.000E+00  0.000E+00
   2   49   38    10    10    8.5831E+02 -1.6305E+02   1.0221E+03  7.651E-01  0.000E+00  0.000E+00  2.12101E+03  1.463E-02  3.000E+00  1.909E+03  0.000E+00  0.000E+00
   2   48   37    10    11    1.0221E+03  1.1303E+01   1.0116E+03  7.651E-01  0.000E+00  0.000E+00  2.11801E+03  1.304E-02  3.000E+00  1.909E+03  0.000E+00  0.000E+00
   2   47   36    10    12    1.0116E+03 -3.4785E+02   1.3602E+03  7.651E-01  0.000E+00  0.000E+00  2.10901E+03  1.364E-02  3.000E+00  1.630E+03  0.000E+00  0.000E+00
   2   46   36    10    13    1.3602E+03 -1.4235E+02   1.5033E+03  7.651E-01  0.000E+00  0.000E+00  2.10602E+03  1.697E-02  3.000E+00  1.350E+03  0.000E+00  0.000E+00
   2   45   36    10    14    1.5033E+03 -1.7705E+02   1.6811E+03  7.651E-01  0.000E+00  0.000E+00  2.10202E+03  1.808E-02  3.000E+00  1.350E+03  0.000E+00  0.000E+00
   2   44   36    10    15    1.6811E+03 -1.0693E+02   1.7888E+03  7.651E-01  0.000E+00  0.000E+00  2.09902E+03  1.994E-02  3.000E+00  1.350E+03  0.000E+00  0.000E+00
   2   43   36    10    16    1.7888E+03 -2.7642E+01   1.8172E+03  7.651E-01  0.000E+00  0.000E+00  2.09602E+03  1.912E-02  3.000E+00  1.630E+03  0.000E+00  0.000E+00
   2   42   37    10    17    1.8172E+03  1.6878E+02   1.6492E+03  7.651E-01  0.000E+00  0.000E+00  2.09002E+03  1.571E-02  3.000E+00  1.630E+03  0.000E+00  0.000E+00
   2   41   37    10    18    1.6492E+03 -2.7092E+02   1.9209E+03  7.651E-01  0.000E+00  0.000E+00  2.08002E+03  1.511E-02  3.000E+00  1.350E+03  0.000E+00  0.000E+00
   2   40   37    10    19    1.9209E+03 -3.3729E+02   2.2590E+03  7.651E-01  0.000E+00  0.000E+00  2.07402E+03  2.089E-02  3.000E+00  1.630E+03  0.000E+00  0.000E+00
   2   39   38    10    20    2.2590E+03 -3.9849E+01   2.2996E+03  7.651E-01  0.000E+00  0.000E+00  2.07102E+03  2.373E-02  3.000E+00  1.630E+03  0.000E+00  0.000E+00
   2   38   38    10    21    2.2996E+03  1.3616E+01   2.2867E+03  7.651E-01  0.000E+00  0.000E+00  2.06702E+03  2.140E-02  3.000E+00  1.630E+03  0.000E+00  0.000E+00
   2   37   37    10    22    2.2867E+03 -2.9799E+02   2.5855E+03  7.651E-01  0.000E+00  0.000E+00  2.06102E+03  2.219E-02  3.000E+00  1.630E+03  0.000E+00  0.000E+00
   2   36   37    10    23    2.5855E+03 -2.0587E+02   2.7921E+03  7.651E-01  0.000E+00  0.000E+00  2.05702E+03  2.477E-02  3.000E+00  1.350E+03  0.000E+00  0.000E+00
   2   35   37    10    24    2.7921E+03 -6.2991E+01   2.8559E+03  7.651E-01  0.000E+00  0.000E+00  2.05402E+03  1.809E-02  3.000E+00  6.750E+02  0.000E+00  0.000E+00
   2   36   55    11     1    8.4776E+03 -7.7320E+01   8.5556E+03  6.743E-01  0.000E+00  0.000E+00  1.97604E+03  4.018E-02  3.000E+00  6.750E+02  0.000E+00  0.000E+00
   2   36   56    11     2    8.5556E+03 -1.3227E+02   8.6886E+03  6.743E-01  0.000E+00  0.000E+00  1.97507E+03  6.798E-02  3.000E+00  1.630E+03  0.000E+00  0.000E+00
   2   37   57    11     3    8.6886E+03 -1.3301E+02   8.8223E+03  6.743E-01  0.000E+00  0.000E+00  1.97307E+03  6.861E-02  3.000E+00  1.630E+03  0.000E+00  0.000E+00
   2   37   58    11     4    8.8223E+03 -8.2035E+01   8.9050E+03  6.743E-01  0.000E+00  0.000E+00  1.97209E+03  9.082E-02  3.000E+00  1.350E+03  0.000E+00  0.000E+00
   2   37   59    11     5    8.9050E+03  2.7953E+01   8.8777E+03  6.743E-01  0.000E+00  0.000E+00  1.97207E+03  7.391E-02  3.000E+00  1.350E+03  0.000E+00  0.000E+00
   2   37   60    11     6    8.8777E+03 -5.3712E+01   8.9321E+03  6.743E-01  0.000E+00  0.000E+00  1.97006E+03  5.946E-02  3.000E+00  1.630E+03  0.000E+00  0.000E+00
   2   38   61    11     7    8.9321E+03 -1.6066E+02   9.0934E+03  6.743E-01  0.000E+00  0.000E+00  1.96705E+03  5.414E-02  3.000E+00  1.630E+03  0.000E+00  0.000E+00
   2   38   62    11     8    9.0934E+03 -1.0541E+02   9.1995E+03  6.743E-01  0.000E+00  0.000E+00  1.96305E+03  4.960E-02  3.000E+00  6.750E+02  0.000E+00  0.000E+00
   2   51   11    12     1    0.0000E+00 -4.2577E+02   4.2673E+02  9.566E-01  0.000E+00  0.000E+00  2.38700E+03  4.261E-03  3.000E+00  1.909E+03  0.000E+00  0.000E+00
   2   50   12    12     2    4.2673E+02 -6.3899E+01   4.9158E+02  9.566E-01  0.000E+00  0.000E+00  2.37501E+03  6.436E-03  3.000E+00  1.630E+03  0.000E+00  0.000E+00
   2   49   12    12     3    4.9158E+02 -3.9610E+02   8.8864E+02  9.566E-01  0.000E+00  0.000E+00  2.36501E+03  8.588E-03  3.000E+00  1.630E+03  0.000E+00  0.000E+00
   2   48   13    12     4    8.8864E+02 -1.9151E+02   1.0811E+03  9.566E-01  0.000E+00  0.000E+00  2.35601E+03  1.141E-02  3.000E+00  1.630E+03  0.000E+00  0.000E+00
   2   48   14    12     5    1.0811E+03 -1.7452E+02   1.2566E+03  9.566E-01  0.000E+00  0.000E+00  2.35001E+03  1.240E-02  3.000E+00  1.630E+03  0.000E+00  0.000E+00
   2   47   15    12     6    1.2566E+03 -1.7741E+02   1.4349E+03  9.566E-01  0.000E+00  0.000E+00  2.34001E+03  1.376E-02  3.000E+00  1.630E+03  0.000E+00  0.000E+00
   2   47   16    12     7    1.4349E+03 -1.4469E+02   1.5806E+03  9.566E-01  0.000E+00  0.000E+00  2.33502E+03  1.617E-02  3.000E+00  1.630E+03  0.000E+00  0.000E+00
   2   46   17    12     8    1.5806E+03  6.0676E+01   1.5209E+03  9.566E-01  0.000E+00  0.000E+00  2.32902E+03  1.530E-02  3.000E+00  1.630E+03  0.000E+00  0.000E+00
   2   46   18    12     9    1.5209E+03  1.4550E+02   1.3763E+03  9.566E-01  0.000E+00  0.000E+00  2.32101E+03  1.196E-02  3.000E+00  1.350E+03  0.000E+00  0.000E+00
   2   46   19    12    10    1.3763E+03 -4.5624E+02   1.8335E+03  9.566E-01  0.000E+00  0.000E+00  2.30601E+03  1.446E-02  3.000E+00  1.350E+03  0.000E+00  0.000E+00
   2   46   20    12    11    1.8335E+03  7.6004E+02   1.0744E+03  9.566E-01  0.000E+00  0.000E+00  2.30601E+03  1.149E-02  3.000E+00  1.630E+03  0.000E+00  0.000E+00
   2   45   21    12    12    1.0744E+03 -3.2188E+02   1.3973E+03  9.566E-01  0.000E+00  0.000E+00  2.27401E+03  9.237E-03  3.000E+00  1.909E+03  0.000E+00  0.000E+00
   2   44   22    12    13    1.3973E+03 -1.7793E+02   1.5762E+03  9.566E-01  0.000E+00  0.000E+00  2.25001E+03  1.117E-02  3.000E+00  1.909E+03  0.000E+00  0.000E+00
   2   43   23    12    14    1.5762E+03  1.3850E+02   1.4386E+03  9.566E-01  0.000E+00  0.000E+00  2.23101E+03  1.134E-02  3.000E+00  1.909E+03  0.000E+00  0.000E+00
   2   42   24    12    15    1.4386E+03 -8.4092E+01   1.5237E+03  9.566E-01  0.000E+00  0.000E+00  2.20801E+03  1.172E-02  3.000E+00  1.630E+03  0.000E+00  0.000E+00
   2   42   25    12    16    1.5237E+03 -2.2763E+01   1.5474E+03  9.566E-01  0.000E+00  0.000E+00  2.20001E+03  1.291E-02  3.000E+00  1.350E+03  0.000E+00  0.000E+00
   2   42   26    12    17    1.5474E+03  1.1735E+02   1.4310E+03  9.566E-01  0.000E+00  0.000E+00  2.18801E+03  1.123E-02  3.000E+00  1.350E+03  0.000E+00  0.000E+00
   2   42   27    12    18    1.4310E+03 -2.6680E+02   1.6987E+03  9.566E-01  0.000E+00  0.000E+00  2.17001E+03  1.168E-02  3.000E+00  1.350E+03  0.000E+00  0.000E+00
   2   42   28    12    19    1.6987E+03 -9.6791E+01   1.7965E+03  9.566E-01  0.000E+00  0.000E+00  2.15901E+03  1.335E-02  3.000E+00  1.630E+03  0.000E+00  0.000E+00
   2   41   29    12    20    1.7965E+03  1.4496E+02   1.6525E+03  9.566E-01  0.000E+00  0.000E+00  2.14201E+03  1.334E-02  3.000E+00  1.909E+03  0.000E+00  0.000E+00
   2   40   30    12    21    1.6525E+03  6.3106E+01   1.5903E+03  9.566E-01  0.000E+00  0.000E+00  2.12701E+03  1.353E-02  3.000E+00  1.909E+03  0.000E+00  0.000E+00
   2   39   31    12    22    1.5903E+03  1.1455E+02   1.4767E+03  9.566E-01  0.000E+00  0.000E+00  2.11501E+03  1.356E-02  3.000E+00  1.909E+03  1.154E+02 -8.738E-01
   2   38   32    12    23    1.4767E+03  1.1455E+02   1.3631E+03  9.566E-01  0.000E+00  0.000E+00  2.10301E+03  1.264E-02  3.000E+00  1.909E+03  1.169E+02 -2.375E+00
   2   37   33    12    24    1.3631E+03  2.4074E+01   1.3400E+03  9.566E-01  0.000E+00  0.000E+00  2.08901E+03  1.227E-02  3.000E+00  1.909E+03  0.000E+00  0.000E+00
   2   36   34    12    25    1.3400E+03 -5.7309E+01   1.3983E+03  9.566E-01  0.000E+00  0.000E+00  2.07701E+03  1.056E-02  3.000E+00  9.546E+02  0.000E+00  0.000E+00
   2   38   62    13     1    9.3940E+03 -1.1295E+02   9.5076E+03  6.402E-01  0.000E+00  0.000E+00  1.96304E+03  3.842E-02  3.000E+00  6.750E+02  0.000E+00  0.000E+00
   2   38   63    13     2    9.5076E+03  6.4936E-01   9.5076E+03  6.402E-01  0.000E+00  0.000E+00  1.96551E+03  2.511E+00  3.000E+00  1.350E+03  0.000E+00  0.000E+00
   2   38   64    13     3    9.5076E+03  3.4393E+01   9.4738E+03  6.402E-01  0.000E+00  0.000E+00  1.96551E+03  2.509E+00  3.000E+00  1.350E+03  0.000E+00  0.000E+00
   2   38   65    13     4    9.4738E+03 -2.6753E+01   9.5012E+03  6.402E-01  0.000E+00  0.000E+00  1.96307E+03  6.804E-02  3.000E+00  6.750E+02  0.000E+00  0.000E+00
   2   46   61    14     1    0.0000E+00  6.9135E-01   0.0000E+00  6.914E-01  0.000E+00  0.000E+00  2.01700E+03  5.237E-06  3.000E+00  1.350E+03  0.000E+00  0.000E+00
   2   45   61    14     2    0.0000E+00  6.9135E-01   0.0000E+00  6.914E-01  0.000E+00  0.000E+00  2.01000E+03  5.630E-06  3.000E+00  1.350E+03  7.226E-01 -3.127E-02
   2   44   61    14     3    0.0000E+00  6.9135E-01   0.0000E+00  6.914E-01  0.000E+00  0.000E+00  2.00600E+03  5.630E-06  3.000E+00  1.350E+03  0.000E+00  6.913E-01
   2   43   61    14     4    0.0000E+00  6.9135E-01   0.0000E+00  6.914E-01  0.000E+00  0.000E+00  1.99900E+03  5.355E-06  3.000E+00  1.350E+03  0.000E+00  6.913E-01
   2   42   61    14     5    0.0000E+00  6.9135E-01   0.0000E+00  6.914E-01  0.000E+00  0.000E+00  1.99300E+03  5.237E-06  3.000E+00  1.350E+03  0.000E+00  6.913E-01
   2   41   61    14     6    0.0000E+00  6.9135E-01   0.0000E+00  6.914E-01  0.000E+00  0.000E+00  1.98500E+03  5.130E-06  3.000E+00  1.350E+03  0.000E+00  0.000E+00
   2   40   61    14     7    0.0000E+00  6.9135E-01   0.0000E+00  6.914E-01  0.000E+00  0.000E+00  1.97800E+03  5.485E-06  3.000E+00  1.350E+03  0.000E+00  0.000E+00
   2   39   61    14     8    0.0000E+00  6.9135E-01   0.0000E+00  6.914E-01  0.000E+00  0.000E+00  1.97300E+03  5.428E-06  3.000E+00  1.630E+03  8.469E-01 -1.555E-01
   2   38   62    14     9    0.0000E+00 -1.9381E+02   1.9450E+02  6.914E-01  0.000E+00  0.000E+00  1.96300E+03  2.737E-03  3.000E+00  9.546E+02  0.000E+00  0.000E+00
   2   39   70    15     1    9.8898E+03  2.3294E-01   9.8899E+03  2.538E-01  0.000E+00  0.000E+00  1.94604E+03  3.837E-02  3.000E+00  6.750E+02  0.000E+00  0.000E+00
   2   40   75    16     1    1.5000E+04 -3.3550E+01   1.5034E+04  2.508E-01  0.000E+00  0.000E+00  1.93406E+03  6.246E-02  3.000E+00  6.750E+02  0.000E+00  0.000E+00
   2   40   76    16     2    1.5034E+04  0.0000E+00   1.5034E+04  2.508E-01  0.000E+00  0.000E+00  1.93309E+03  8.969E-02  3.000E+00  0.000E+00  0.000E+00  0.000E+00
   2   55   73    17     1    0.0000E+00  3.1783E-01   0.0000E+00  3.178E-01  0.000E+00  0.000E+00  2.04100E+03  5.662E-06  3.000E+00  1.350E+03  0.000E+00  0.000E+00
   2   54   73    17     2    0.0000E+00  3.1783E-01   0.0000E+00  3.178E-01  0.000E+00  0.000E+00  2.02900E+03  5.590E-06  3.000E+00  1.350E+03  0.000E+00  3.178E-01
   2   53   73    17     3    0.0000E+00  3.1783E-01   0.0000E+00  3.178E-01  0.000E+00  0.000E+00  2.01700E+03  5.996E-06  3.000E+00  1.350E+03  0.000E+00  3.178E-01
   2   52   73    17     4    0.0000E+00  3.1783E-01   0.0000E+00  3.178E-01  0.000E+00  0.000E+00  2.01000E+03  6.344E-06  3.000E+00  1.630E+03  0.000E+00  3.178E-01
   2   51   72    17     5    0.0000E+00  3.1783E-01   0.0000E+00  3.178E-01  0.000E+00  0.000E+00  1.99800E+03  6.560E-06  3.000E+00  1.630E+03  0.000E+00  3.178E-01
   2   50   72    17     6    0.0000E+00 -5.7074E+01   5.7392E+01  3.178E-01  0.000E+00  0.000E+00  1.97500E+03  1.382E-03  3.000E+00  1.350E+03  0.000E+00  0.000E+00
   2   49   72    17     7    5.7392E+01  0.0000E+00   5.7710E+01  3.178E-01  0.000E+00  0.000E+00  1.95600E+03  2.007E-03  3.000E+00  0.000E+00  0.000E+00  0.000E+00
   2   48   72    17     8    5.7710E+01  0.0000E+00   5.8028E+01  3.178E-01  0.000E+00  0.000E+00  1.95200E+03  2.009E-03  3.000E+00  0.000E+00  0.000E+00  0.000E+00
   2   47   72    17     9    5.8028E+01  0.0000E+00   5.8345E+01  3.178E-01  0.000E+00  0.000E+00  1.95000E+03  2.058E-03  3.000E+00  0.000E+00  0.000E+00  0.000E+00
   2   46   72    17    10    5.8345E+01  0.0000E+00   5.8663E+01  3.178E-01  0.000E+00  0.000E+00  1.94800E+03  2.112E-03  3.000E+00  0.000E+00  0.000E+00  0.000E+00
   2   45   72    17    11    5.8663E+01  0.0000E+00   5.8981E+01  3.178E-01  0.000E+00  0.000E+00  1.94400E+03  2.149E-03  3.000E+00  0.000E+00  0.000E+00  0.000E+00
   2   44   73    17    12    5.8981E+01  0.0000E+00   5.9299E+01  3.178E-01  0.000E+00  0.000E+00  1.94200E+03  2.210E-03  3.000E+00  0.000E+00  0.000E+00  0.000E+00
   2   43   73    17    13    5.9299E+01  0.0000E+00   5.9617E+01  3.178E-01  0.000E+00  0.000E+00  1.94200E+03  2.417E-03  3.000E+00  0.000E+00  0.000E+00  0.000E+00
   2   42   73    17    14    5.9617E+01  0.0000E+00   5.9934E+01  3.178E-01  0.000E+00  0.000E+00  1.94100E+03  2.484E-03  3.000E+00  0.000E+00  0.000E+00  0.000E+00
   2   34   45    18     1    6.6937E+03 -4.0808E+01   6.7350E+03  5.185E-01  0.000E+00  0.000E+00  2.01794E+03  4.359E-02  3.000E+00  1.630E+03  0.000E+00  0.000E+00
   2   34   46    18     2    6.7350E+03 -7.9432E+01   6.8150E+03  5.185E-01  0.000E+00  0.000E+00  2.01104E+03  3.999E-02  3.000E+00  1.350E+03  0.000E+00  0.000E+00
   2   34   47    18     3    6.8150E+03  4.5124E+00   6.8110E+03  5.185E-01  0.000E+00  0.000E+00  2.00703E+03  3.157E-02  3.000E+00  6.750E+02  0.000E+00  0.000E+00
   2   41   74    19     1    8.2172E+03 -2.0830E+02   8.4259E+03  3.568E-01  0.000E+00  0.000E+00  1.93805E+03  4.863E-02  3.000E+00  1.909E+03  0.000E+00  0.000E+00
   2   40   75    19     2    8.4259E+03 -6.0197E+01   8.4864E+03  3.568E-01  0.000E+00  0.000E+00  1.93405E+03  4.910E-02  3.000E+00  9.546E+02  0.000E+00  0.000E+00
   2   39   66    20     1    0.0000E+00  5.4894E-01   0.0000E+00  5.489E-01  0.000E+00  0.000E+00  1.96250E+03  8.072E-06  1.500E+00  8.148E+02  0.000E+00  5.489E-01
   2   39   67    20     2    0.0000E+00  5.4894E-01   0.0000E+00  5.489E-01  0.000E+00  0.000E+00  1.96225E+03  9.392E-06  1.500E+00  6.750E+02  0.000E+00  5.489E-01
   2   40   68    20     3    0.0000E+00  5.4894E-01   0.0000E+00  5.489E-01  0.000E+00  0.000E+00  1.96200E+03  5.210E-06  1.500E+00  9.546E+02  0.000E+00  5.489E-01
   2   41   69    20     4    0.0000E+00  5.4894E-01   0.0000E+00  5.489E-01  0.000E+00  0.000E+00  1.96175E+03  9.937E-06  1.500E+00  8.148E+02  0.000E+00  5.489E-01
   2   42   69    20     5    0.0000E+00  5.4894E-01   0.0000E+00  5.489E-01  0.000E+00  0.000E+00  1.96150E+03  9.937E-06  1.500E+00  8.148E+02  0.000E+00  5.489E-01
   2   43   70    20     6    0.0000E+00  5.4894E-01   0.0000E+00  5.489E-01  0.000E+00  0.000E+00  1.96125E+03  9.937E-06  1.500E+00  8.148E+02  0.000E+00  5.489E-01
   2   38   66    21     1    9.5012E+03 -7.9438E+01   9.5811E+03  4.571E-01  0.000E+00  0.000E+00  1.96006E+03  5.857E-02  3.000E+00  1.350E+03  0.000E+00  0.000E+00
   2   38   67    21     2    9.5811E+03 -6.7115E+00   9.5883E+03  4.571E-01  0.000E+00  0.000E+00  1.95806E+03  5.618E-02  3.000E+00  1.630E+03  0.000E+00  0.000E+00
   2   39   68    21     3    9.5883E+03 -3.3893E+01   9.6226E+03  4.571E-01  0.000E+00  0.000E+00  1.95305E+03  5.054E-02  3.000E+00  1.630E+03  0.000E+00  0.000E+00
   2   39   69    21     4    9.6226E+03 -2.3518E+02   9.8583E+03  4.571E-01  0.000E+00  0.000E+00  1.94805E+03  5.361E-02  3.000E+00  1.350E+03  0.000E+00  0.000E+00
   2   39   70    21     5    9.8583E+03  5.3342E+00   9.8534E+03  4.571E-01  0.000E+00  0.000E+00  1.94605E+03  4.593E-02  3.000E+00  6.750E+02  0.000E+00  0.000E+00
   2   38   71    22     1    4.0000E+03 -5.9353E+01   4.0601E+03  7.393E-01  0.000E+00  0.000E+00  1.94556E+03  5.989E-02  3.000E+00  3.259E+02  0.000E+00  0.000E+00
   2   38   72    22     2    4.0601E+03 -4.5093E+01   4.1059E+03  7.393E-01  0.000E+00  0.000E+00  1.94506E+03  6.036E-02  3.000E+00  3.259E+02  0.000E+00  0.000E+00
   2   39   73    22     3    4.1059E+03  1.0200E+02   4.0047E+03  7.393E-01  0.000E+00  0.000E+00  1.94456E+03  6.011E-02  3.000E+00  3.259E+02  0.000E+00  0.000E+00
   2   39   74    22     4    4.0047E+03  2.1419E+02   3.7912E+03  7.393E-01  0.000E+00  0.000E+00  1.94406E+03  5.548E-02  3.000E+00  2.700E+02  2.034E+00  2.030E+00
   2   39   75    22     5    3.7912E+03  8.1000E+01   3.7110E+03  7.393E-01  0.000E+00  0.000E+00  1.94355E+03  5.422E-02  3.000E+00  2.700E+02  8.324E+01 -2.238E+00
   2   39   76    22     6    3.7110E+03  0.0000E+00   3.7117E+03  7.393E-01  0.000E+00  0.000E+00  1.94305E+03  5.387E-02  3.000E+00  0.000E+00  0.000E+00  0.000E+00
   2   39   71    23     1    5.8899E+03 -2.1010E+02   6.1004E+03  4.626E-01  0.000E+00  0.000E+00  1.94205E+03  4.690E-02  3.000E+00  1.630E+03  0.000E+00  0.000E+00
   2   40   72    23     2    6.1004E+03 -9.4300E+01   6.1952E+03  4.626E-01  0.000E+00  0.000E+00  1.94105E+03  5.091E-02  3.000E+00  1.630E+03  0.000E+00  0.000E+00
   2   40   73    23     3    6.1952E+03 -1.8393E+02   6.3796E+03  4.626E-01  0.000E+00  0.000E+00  1.93805E+03  4.561E-02  3.000E+00  1.350E+03  0.000E+00  0.000E+00
   2   40   74    23     4    6.3796E+03 -8.7048E+01   6.4671E+03  4.626E-01  0.000E+00  0.000E+00  1.93605E+03  4.939E-02  3.000E+00  1.350E+03  0.000E+00  0.000E+00
   2   40   75    23     5    6.4671E+03 -4.6003E+01   6.5136E+03  4.626E-01  0.000E+00  0.000E+00  1.93404E+03  4.401E-02  3.000E+00  6.750E+02  0.000E+00  0.000E+00



1
  VOLUMETRIC BUDGET FOR UNSATURATED ZONE BENEATH STREAMS AT END OF TIME STEP    15 STRESS PERIOD   2
  ------------------------------------------------------------------------------------------------

    CUMULATIVE VOLUMES             L**3    RATES FOR THIS TIME STEP         L**3/T
    ------------------                     ------------------------


          STREAM LOSS =        15059.0547            STREAM LOSS =         1158.0084
    CHANGE IN STORAGE =         1609.7733      CHANGE IN STORAGE =          -25.8285
       RECHARGE TO GW =        13449.2812         RECHARGE TO GW =         1183.8363

             TOTAL IN =        15059.0547               TOTAL IN =         1183.8369

            TOTAL OUT =        15059.0547              TOTAL OUT =         1183.8363

             IN - OUT =            0.0000               IN - OUT =        6.1035E-04

  PERCENT DISCREPANCY =            0.00      PERCENT DISCREPANCY =             0.00



 ***WARNING***NUZTOP IS 3 AND ALL LAYERS  IN ROW           39  AND COLUMN 
          76  ARE INACTIVE.
 UNSATURATED FLOW WILL NOT BE ADDED TO ANY LAYER-- SOME WATER MAY FLOW PAST
  LOWEST LAYER
 ***WARNING***NUZTOP IS 3 AND ALL LAYERS  IN ROW           40  AND COLUMN 
          76  ARE INACTIVE.
 UNSATURATED FLOW WILL NOT BE ADDED TO ANY LAYER-- SOME WATER MAY FLOW PAST
  LOWEST LAYER


UNSATURATED ZONE PACKAGE VOLUMETRIC BUDGET FOR  TIME STEP    15 STRESS PERIOD    2
  ------------------------------------------------------------------------------



     CUMULATIVE VOLUMES      L**3       RATES FOR THIS TIME STEP      L**3/T
     ------------------                 ------------------------

           IN:                                      IN:
           ---                                      ---
        INFILTRATION =       26039.6903          INFILTRATION =       0.0000E+00

          OUT:                                     OUT:
          ----                                     ----
              UZF ET =      257772.8095                UZF ET =        1199.5356
        UZF RECHARGE =      423105.5642          UZF RECHARGE =       24423.1919

            IN - OUT =     -654838.6834              IN - OUT =      -25622.7275

          STORAGE:                                 STORAGE:
          --------                                 --------
      STORAGE CHANGE =     -653743.2205        STORAGE CHANGE =      -25620.1238

 PERCENT DISCREPANCY IS DIFFERENCE BETWEEN IN-OUT MINUS CHANGE IN STORAGE
 DIVIDED BY THE AVERAGE OF IN AND OUT TIMES 100

 PERCENT DISCREPANCY =          -0.04     PERCENT DISCREPANCY =          -0.01






1
  VOLUMETRIC BUDGET FOR ENTIRE MODEL AT END OF TIME STEP   15, STRESS PERIOD   2
  ------------------------------------------------------------------------------

     CUMULATIVE VOLUMES      L**3       RATES FOR THIS TIME STEP      L**3/T
     ------------------                 ------------------------

           IN:                                      IN:
           ---                                      ---
             STORAGE     =        5840.9731               STORAGE     =         645.7046
       CONSTANT HEAD     =          17.5128         CONSTANT HEAD     =           0.0000
      STREAM LEAKAGE     =       64991.7227        STREAM LEAKAGE     =        4177.2764
       LAKE  SEEPAGE     =        4408.4243         LAKE  SEEPAGE     =         226.0160
        UZF RECHARGE     =      423119.1875          UZF RECHARGE     =       24423.2188
               GW ET     =           0.0000                 GW ET     =           0.0000
     SURFACE LEAKAGE     =           0.0000       SURFACE LEAKAGE     =           0.0000

                TOTAL IN =      498377.8125                  TOTAL IN =       29472.2168

          OUT:                                     OUT:
          ----                                     ----
             STORAGE     =      211239.9531               STORAGE     =       12893.3262
       CONSTANT HEAD     =        1069.8546         CONSTANT HEAD     =          73.5148
      STREAM LEAKAGE     =      190379.0156        STREAM LEAKAGE     =       13173.0752
       LAKE  SEEPAGE     =       42463.4297         LAKE  SEEPAGE     =        2676.6433
        UZF RECHARGE     =           0.0000          UZF RECHARGE     =           0.0000
               GW ET     =       48226.0273                 GW ET     =         167.5693
     SURFACE LEAKAGE     =        6011.8809       SURFACE LEAKAGE     =         553.7380

               TOTAL OUT =      499390.1250                 TOTAL OUT =       29537.8672

                IN - OUT =       -1012.3125                  IN - OUT =         -65.6504

     PERCENT DISCREPANCY =          -0.20         PERCENT DISCREPANCY =          -0.22






         TIME SUMMARY AT END OF TIME STEP   15 IN STRESS PERIOD    2
                    SECONDS     MINUTES      HOURS       DAYS        YEARS
                    -----------------------------------------------------------
   TIME STEP LENGTH  86400.      1440.0      24.000      1.0000     2.73785E-03
 STRESS PERIOD TIME 1.29600E+06  21600.      360.00      15.000     4.10678E-02
         TOTAL TIME 1.38240E+06  23040.      384.00      16.000     4.38056E-02
1
                                                   Max.-Head-Change                         Max.-Flux-Residual
  Residual-Control   Outer-Iter.   Inner-Iter.     Column Row Layer    Maximum-Head-Change  Column Row Layer    Maximum-Flux-Residual          L2-NORM 
          0                 1           5            36   60     2       0.1482349494E+01      74   39    2         0.1790923377E+03      0.5063552065E+03
          0                 2           4            44   15     2       0.1120298602E+01      59   36    2         0.2519571809E+02      0.9347741876E+02
          0                 3           3            44   15     2      -0.8244845225E-01      45   16    2         0.4742733770E+02      0.5250292554E+02
          0                 4           2            45   16     2       0.1219899447E-01      45   16    2         0.1233889631E+02      0.1439639764E+02
          0                 5           2            45   16     2       0.3175592595E-02      45   16    2         0.3211776789E+01      0.4328564170E+01
          0                 6           2            45   16     2       0.8269703167E-03      45   16    2         0.8362479737E+00      0.1511553086E+01
          0                 7           1            69   30     2      -0.2445986308E-03      69   30    2        -0.3518267979E+00      0.6123868383E+00
          0                 8           1             3   56     2       0.1311935968E-03      69   30    2        -0.1712978067E+00      0.2699506098E+00
          0                 9           1             3   56     2       0.7106961571E-04      69   30    2        -0.7944810960E-01      0.1234677643E+00

    ------------------------------------------------
       NWT REQUIRED            9 OUTER ITERATIONS 
       AND A TOTAL OF         21 INNER ITERATIONS.
    ------------------------------------------------
                                                   Max.-Head-Change                         Max.-Flux-Residual
  Residual-Control   Outer-Iter.   Inner-Iter.     Column Row Layer    Maximum-Head-Change  Column Row Layer    Maximum-Flux-Residual          L2-NORM 
          0                 1           3            24   34     2       0.5135155752E-01      63   38    2         0.3741623568E+02      0.4983999318E+02
          0                 2           2            29   53     2       0.3454851552E-01      64   38    2         0.1686513793E+02      0.2713336016E+02
          0                 3           3            24   34     2      -0.4257973304E-01      63   38    2        -0.1415834134E+02      0.2625164022E+02
          0                 4           2            24   34     2      -0.4278479630E-02      69   30    2        -0.5369326546E+01      0.1022053261E+02
          0                 5           2            69   30     2      -0.2578440628E-02      69   30    2        -0.3707695626E+01      0.4788563284E+01
          0                 6           2            69   30     2      -0.1438787028E-02      69   30    2        -0.2068489428E+01      0.2337231427E+01
          0                 7           1            69   30     2      -0.7224476928E-03      69   30    2        -0.1038432556E+01      0.1117558649E+01
          0                 8           1            69   30     2      -0.3415312805E-03      69   30    2        -0.4907772619E+00      0.5174938578E+00
          0                 9           1            69   30     2      -0.1554737864E-03      69   30    2        -0.2233641915E+00      0.2331730266E+00
          0                10           1            69   30     2      -0.6900879954E-04      69   30    2        -0.9912286985E-01      0.1028985510E+00

    ------------------------------------------------
       NWT REQUIRED           10 OUTER ITERATIONS 
       AND A TOTAL OF         18 INNER ITERATIONS.
    ------------------------------------------------
                                                   Max.-Head-Change                         Max.-Flux-Residual
  Residual-Control   Outer-Iter.   Inner-Iter.     Column Row Layer    Maximum-Head-Change  Column Row Layer    Maximum-Flux-Residual          L2-NORM 
          0                 1           3            24   34     2       0.5132281140E-01      69   30    2         0.7494065954E+01      0.1449898019E+02
          0                 2           2            29   53     2       0.3454859544E-01      70   31    2         0.1119508101E+02      0.2092369896E+02
          0                 3           3            24   34     2      -0.4257710506E-01      63   38    2        -0.1405426670E+02      0.2641262178E+02
          0                 4           2            24   34     2      -0.4278454112E-02      69   30    2        -0.5369483915E+01      0.1025846918E+02
          0                 5           2            69   30     2      -0.2578477174E-02      69   30    2        -0.3707748192E+01      0.4792594150E+01
          0                 6           2            69   30     2      -0.1438797121E-02      69   30    2        -0.2068506936E+01      0.2336937161E+01
          0                 7           1            69   30     2      -0.7224668102E-03      69   30    2        -0.1038459813E+01      0.1117490518E+01
          0                 8           1            69   30     2      -0.3415372663E-03      69   30    2        -0.4907863119E+00      0.5174570735E+00
          0                 9           1            69   30     2      -0.1554759643E-03      69   30    2        -0.2233675169E+00      0.2331672502E+00
